/*---------------------------------------------------------------------------*\
| =========                 |                                                 |
| \\      /  F ield         | OpenFOAM: The Open Source CFD Toolbox           |
|  \\    /   O peration     | Version:  2406                                  |
|   \\  /    A nd           | Website:  www.openfoam.com                      |
|    \\/     M anipulation  |                                                 |
\*---------------------------------------------------------------------------*/
Build  : _630d60de3b-20240620 OPENFOAM=2406 version=v2406
Arch   : "LSB;label=32;scalar=64"
Exec   : simpleFoam
Date   : Apr 26 2025
Time   : 15:43:18
Host   : Valente
PID    : 19352
I/O    : uncollated
Case   : /home/huanix/OpenFOAM/huanix-v2406/run/programmingTutorial06/testcase/pitzDaily_myKOmegaSST
nProcs : 1
trapFpe: Floating point exception trapping enabled (FOAM_SIGFPE).
fileModificationChecking : Monitoring run-time modified files using timeStampMaster (fileModificationSkew 5, maxFileModificationPolls 20)
allowSystemOperations : Allowing user-supplied system call operations

// * * * * * * * * * * * * * * * * * * * * * * * * * * * * * * * * * * * * * //
Create time

Create mesh for time = 0


SIMPLE: convergence criteria
    field p	 tolerance 0.01
    field U	 tolerance 0.001
    field "(k|epsilon|omega|f|v2)"	 tolerance 0.001

Reading field p

Reading field U

Reading/calculating face flux field phi

Selecting incompressible transport model Newtonian
Selecting turbulence model type RAS
Selecting RAS turbulence model myKOmegaSST
Selecting patchDistMethod meshWave
RAS
{
    RASModel        myKOmegaSST;
    turbulence      on;
    printCoeffs     on;
    alphaK1         0.85;
    alphaK2         1;
    alphaOmega1     0.5;
    alphaOmega2     0.856;
    gamma1          0.555556;
    gamma2          0.44;
    beta1           0.075;
    beta2           0.0828;
    betaStar        0.09;
    a1              0.31;
    b1              1;
    c1              10;
    F3              false;
    decayControl    false;
    kInf            0;
    omegaInf        0;
}

No MRF models present

No finite volume options present

Starting time loop

streamLine streamlines:
    Employing velocity field U
    automatic track length specified through number of sub cycles : 5

Time = 1

smoothSolver:  Solving for Ux, Initial residual = 1, Final residual = 0.0135115, No Iterations 1
smoothSolver:  Solving for Uy, Initial residual = 1, Final residual = 0.0157213, No Iterations 1
GAMG:  Solving for p, Initial residual = 1, Final residual = 0.0684239, No Iterations 17
time step continuity errors : sum local = 1.19727, global = 0.179868, cumulative = 0.179868
smoothSolver:  Solving for omega, Initial residual = 0.140004, Final residual = 0.0077129, No Iterations 3
bounding omega, min: -3732.05 max: 114770 average: 2039.14
smoothSolver:  Solving for k, Initial residual = 1, Final residual = 0.0422318, No Iterations 3
ExecutionTime = 0.1 s  ClockTime = 0 s

Time = 2

smoothSolver:  Solving for Ux, Initial residual = 0.489636, Final residual = 0.044596, No Iterations 4
smoothSolver:  Solving for Uy, Initial residual = 0.344527, Final residual = 0.0282511, No Iterations 4
GAMG:  Solving for p, Initial residual = 0.0435672, Final residual = 0.00349739, No Iterations 15
time step continuity errors : sum local = 5.74622, global = 0.119463, cumulative = 0.299331
smoothSolver:  Solving for omega, Initial residual = 0.0435435, Final residual = 0.00110494, No Iterations 2
smoothSolver:  Solving for k, Initial residual = 0.317236, Final residual = 0.0155902, No Iterations 2
ExecutionTime = 0.12 s  ClockTime = 0 s

Time = 3

smoothSolver:  Solving for Ux, Initial residual = 0.152561, Final residual = 0.0108433, No Iterations 4
smoothSolver:  Solving for Uy, Initial residual = 0.247786, Final residual = 0.0233098, No Iterations 3
GAMG:  Solving for p, Initial residual = 0.135747, Final residual = 0.0119578, No Iterations 6
time step continuity errors : sum local = 4.92376, global = 0.437626, cumulative = 0.736957
smoothSolver:  Solving for omega, Initial residual = 0.0358723, Final residual = 0.00338446, No Iterations 1
smoothSolver:  Solving for k, Initial residual = 0.15667, Final residual = 0.00738616, No Iterations 2
ExecutionTime = 0.13 s  ClockTime = 0 s

Time = 4

smoothSolver:  Solving for Ux, Initial residual = 0.0906937, Final residual = 0.00686533, No Iterations 4
smoothSolver:  Solving for Uy, Initial residual = 0.154871, Final residual = 0.0150824, No Iterations 3
GAMG:  Solving for p, Initial residual = 0.118123, Final residual = 0.00927357, No Iterations 7
time step continuity errors : sum local = 2.26223, global = 0.112465, cumulative = 0.849422
smoothSolver:  Solving for omega, Initial residual = 0.0308289, Final residual = 0.000847633, No Iterations 2
smoothSolver:  Solving for k, Initial residual = 0.106149, Final residual = 0.00606482, No Iterations 2
ExecutionTime = 0.14 s  ClockTime = 0 s

Time = 5

smoothSolver:  Solving for Ux, Initial residual = 0.0727268, Final residual = 0.00617401, No Iterations 4
smoothSolver:  Solving for Uy, Initial residual = 0.136495, Final residual = 0.00929303, No Iterations 4
GAMG:  Solving for p, Initial residual = 0.120213, Final residual = 0.0116286, No Iterations 4
time step continuity errors : sum local = 1.64405, global = -0.140493, cumulative = 0.708929
smoothSolver:  Solving for omega, Initial residual = 0.016895, Final residual = 0.000757532, No Iterations 2
bounding omega, min: -612.096 max: 110514 average: 1816.84
smoothSolver:  Solving for k, Initial residual = 0.0923121, Final residual = 0.0058516, No Iterations 2
ExecutionTime = 0.16 s  ClockTime = 0 s

Time = 6

smoothSolver:  Solving for Ux, Initial residual = 0.063329, Final residual = 0.00594846, No Iterations 4
smoothSolver:  Solving for Uy, Initial residual = 0.106704, Final residual = 0.00868955, No Iterations 4
GAMG:  Solving for p, Initial residual = 0.107807, Final residual = 0.00893763, No Iterations 5
time step continuity errors : sum local = 1.09226, global = 0.138334, cumulative = 0.847264
smoothSolver:  Solving for omega, Initial residual = 0.0142466, Final residual = 0.000714871, No Iterations 2
smoothSolver:  Solving for k, Initial residual = 0.0772478, Final residual = 0.00515538, No Iterations 2
ExecutionTime = 0.17 s  ClockTime = 0 s

Time = 7

smoothSolver:  Solving for Ux, Initial residual = 0.0565413, Final residual = 0.00348585, No Iterations 5
smoothSolver:  Solving for Uy, Initial residual = 0.0870377, Final residual = 0.00798002, No Iterations 4
GAMG:  Solving for p, Initial residual = 0.100192, Final residual = 0.00780049, No Iterations 4
time step continuity errors : sum local = 0.920641, global = -0.11538, cumulative = 0.731883
smoothSolver:  Solving for omega, Initial residual = 0.0125609, Final residual = 0.000643671, No Iterations 2
smoothSolver:  Solving for k, Initial residual = 0.0693412, Final residual = 0.00483472, No Iterations 2
ExecutionTime = 0.18 s  ClockTime = 0 s

Time = 8

smoothSolver:  Solving for Ux, Initial residual = 0.0507996, Final residual = 0.00331951, No Iterations 5
smoothSolver:  Solving for Uy, Initial residual = 0.0846112, Final residual = 0.0077083, No Iterations 4
GAMG:  Solving for p, Initial residual = 0.0969754, Final residual = 0.00687242, No Iterations 4
time step continuity errors : sum local = 0.826255, global = -0.109217, cumulative = 0.622667
smoothSolver:  Solving for omega, Initial residual = 0.0113428, Final residual = 0.000600088, No Iterations 2
smoothSolver:  Solving for k, Initial residual = 0.0599954, Final residual = 0.0042246, No Iterations 2
ExecutionTime = 0.19 s  ClockTime = 0 s

Time = 9

smoothSolver:  Solving for Ux, Initial residual = 0.0471956, Final residual = 0.00312679, No Iterations 5
smoothSolver:  Solving for Uy, Initial residual = 0.0803114, Final residual = 0.00740785, No Iterations 4
GAMG:  Solving for p, Initial residual = 0.0954292, Final residual = 0.0067809, No Iterations 4
time step continuity errors : sum local = 0.780821, global = -0.110373, cumulative = 0.512294
smoothSolver:  Solving for omega, Initial residual = 0.010699, Final residual = 0.000530232, No Iterations 2
smoothSolver:  Solving for k, Initial residual = 0.0556776, Final residual = 0.00390561, No Iterations 2
ExecutionTime = 0.21 s  ClockTime = 0 s

Time = 10

smoothSolver:  Solving for Ux, Initial residual = 0.0440603, Final residual = 0.00291893, No Iterations 5
smoothSolver:  Solving for Uy, Initial residual = 0.0762979, Final residual = 0.00710808, No Iterations 4
GAMG:  Solving for p, Initial residual = 0.0951782, Final residual = 0.00691102, No Iterations 4
time step continuity errors : sum local = 0.779552, global = -0.121711, cumulative = 0.390582
smoothSolver:  Solving for omega, Initial residual = 0.00991206, Final residual = 0.000514106, No Iterations 2
smoothSolver:  Solving for k, Initial residual = 0.050212, Final residual = 0.00348973, No Iterations 2
ExecutionTime = 0.22 s  ClockTime = 0 s

Time = 11

smoothSolver:  Solving for Ux, Initial residual = 0.0406276, Final residual = 0.0027062, No Iterations 5
smoothSolver:  Solving for Uy, Initial residual = 0.0750674, Final residual = 0.00699633, No Iterations 4
GAMG:  Solving for p, Initial residual = 0.0931228, Final residual = 0.007749, No Iterations 4
time step continuity errors : sum local = 0.821837, global = -0.133542, cumulative = 0.25704
smoothSolver:  Solving for omega, Initial residual = 0.00958773, Final residual = 0.000458077, No Iterations 2
smoothSolver:  Solving for k, Initial residual = 0.0463936, Final residual = 0.00314792, No Iterations 2
ExecutionTime = 0.24 s  ClockTime = 0 s

Time = 12

smoothSolver:  Solving for Ux, Initial residual = 0.0376363, Final residual = 0.00250177, No Iterations 5
smoothSolver:  Solving for Uy, Initial residual = 0.0753743, Final residual = 0.00704644, No Iterations 4
GAMG:  Solving for p, Initial residual = 0.0975238, Final residual = 0.00795862, No Iterations 4
time step continuity errors : sum local = 0.797433, global = -0.124272, cumulative = 0.132768
smoothSolver:  Solving for omega, Initial residual = 0.00909736, Final residual = 0.000470353, No Iterations 2
smoothSolver:  Solving for k, Initial residual = 0.0440214, Final residual = 0.00298063, No Iterations 2
ExecutionTime = 0.25 s  ClockTime = 0 s

Time = 13

smoothSolver:  Solving for Ux, Initial residual = 0.0351064, Final residual = 0.00232271, No Iterations 5
smoothSolver:  Solving for Uy, Initial residual = 0.0751692, Final residual = 0.0072304, No Iterations 4
GAMG:  Solving for p, Initial residual = 0.0946783, Final residual = 0.00746357, No Iterations 4
time step continuity errors : sum local = 0.717654, global = -0.106187, cumulative = 0.0265806
smoothSolver:  Solving for omega, Initial residual = 0.00895904, Final residual = 0.00044169, No Iterations 2
smoothSolver:  Solving for k, Initial residual = 0.0420267, Final residual = 0.00276802, No Iterations 2
ExecutionTime = 0.26 s  ClockTime = 0 s

Time = 14

smoothSolver:  Solving for Ux, Initial residual = 0.0330607, Final residual = 0.00216266, No Iterations 5
smoothSolver:  Solving for Uy, Initial residual = 0.0750619, Final residual = 0.00746152, No Iterations 4
GAMG:  Solving for p, Initial residual = 0.0933202, Final residual = 0.0067895, No Iterations 4
time step continuity errors : sum local = 0.628461, global = -0.0918933, cumulative = -0.0653127
smoothSolver:  Solving for omega, Initial residual = 0.00865033, Final residual = 0.000435528, No Iterations 2
smoothSolver:  Solving for k, Initial residual = 0.0404012, Final residual = 0.00261925, No Iterations 2
ExecutionTime = 0.28 s  ClockTime = 0 s

Time = 15

smoothSolver:  Solving for Ux, Initial residual = 0.0312838, Final residual = 0.00202222, No Iterations 5
smoothSolver:  Solving for Uy, Initial residual = 0.0751067, Final residual = 0.00467584, No Iterations 5
GAMG:  Solving for p, Initial residual = 0.0935332, Final residual = 0.00708591, No Iterations 4
time step continuity errors : sum local = 0.629841, global = -0.0900197, cumulative = -0.155332
smoothSolver:  Solving for omega, Initial residual = 0.00842076, Final residual = 0.000400687, No Iterations 2
smoothSolver:  Solving for k, Initial residual = 0.0385909, Final residual = 0.0023259, No Iterations 2
ExecutionTime = 0.29 s  ClockTime = 0 s

Time = 16

smoothSolver:  Solving for Ux, Initial residual = 0.0297218, Final residual = 0.00190832, No Iterations 5
smoothSolver:  Solving for Uy, Initial residual = 0.0741803, Final residual = 0.00475611, No Iterations 5
GAMG:  Solving for p, Initial residual = 0.0919833, Final residual = 0.00727273, No Iterations 4
time step continuity errors : sum local = 0.632808, global = -0.0898737, cumulative = -0.245206
smoothSolver:  Solving for omega, Initial residual = 0.00797161, Final residual = 0.000371562, No Iterations 2
smoothSolver:  Solving for k, Initial residual = 0.0375887, Final residual = 0.00206569, No Iterations 2
ExecutionTime = 0.3 s  ClockTime = 0 s

Time = 17

smoothSolver:  Solving for Ux, Initial residual = 0.0282624, Final residual = 0.00179663, No Iterations 5
smoothSolver:  Solving for Uy, Initial residual = 0.0732183, Final residual = 0.00483328, No Iterations 5
GAMG:  Solving for p, Initial residual = 0.0912521, Final residual = 0.00730825, No Iterations 4
time step continuity errors : sum local = 0.623119, global = -0.0853443, cumulative = -0.33055
smoothSolver:  Solving for omega, Initial residual = 0.00749552, Final residual = 0.000355983, No Iterations 2
smoothSolver:  Solving for k, Initial residual = 0.0360233, Final residual = 0.00188934, No Iterations 2
ExecutionTime = 0.32 s  ClockTime = 0 s

Time = 18

smoothSolver:  Solving for Ux, Initial residual = 0.0268523, Final residual = 0.00168969, No Iterations 5
smoothSolver:  Solving for Uy, Initial residual = 0.0719304, Final residual = 0.00487589, No Iterations 5
GAMG:  Solving for p, Initial residual = 0.0906305, Final residual = 0.00761627, No Iterations 4
time step continuity errors : sum local = 0.620853, global = -0.0847362, cumulative = -0.415287
smoothSolver:  Solving for omega, Initial residual = 0.00716791, Final residual = 0.000326026, No Iterations 2
smoothSolver:  Solving for k, Initial residual = 0.0348541, Final residual = 0.00169541, No Iterations 2
ExecutionTime = 0.33 s  ClockTime = 0 s

Time = 19

smoothSolver:  Solving for Ux, Initial residual = 0.0254033, Final residual = 0.00158958, No Iterations 5
smoothSolver:  Solving for Uy, Initial residual = 0.0702248, Final residual = 0.00487042, No Iterations 5
GAMG:  Solving for p, Initial residual = 0.0907819, Final residual = 0.00761805, No Iterations 4
time step continuity errors : sum local = 0.60192, global = -0.0818954, cumulative = -0.497182
smoothSolver:  Solving for omega, Initial residual = 0.00688267, Final residual = 0.000308284, No Iterations 2
smoothSolver:  Solving for k, Initial residual = 0.0332083, Final residual = 0.00144591, No Iterations 2
ExecutionTime = 0.34 s  ClockTime = 0 s

Time = 20

smoothSolver:  Solving for Ux, Initial residual = 0.0239258, Final residual = 0.00149581, No Iterations 5
smoothSolver:  Solving for Uy, Initial residual = 0.0680495, Final residual = 0.00482146, No Iterations 5
GAMG:  Solving for p, Initial residual = 0.0918634, Final residual = 0.00749423, No Iterations 4
time step continuity errors : sum local = 0.56791, global = -0.077348, cumulative = -0.57453
smoothSolver:  Solving for omega, Initial residual = 0.00660615, Final residual = 0.000281566, No Iterations 2
smoothSolver:  Solving for k, Initial residual = 0.0316637, Final residual = 0.00138018, No Iterations 2
ExecutionTime = 0.35 s  ClockTime = 0 s

Time = 21

smoothSolver:  Solving for Ux, Initial residual = 0.0224949, Final residual = 0.00140618, No Iterations 5
smoothSolver:  Solving for Uy, Initial residual = 0.0652839, Final residual = 0.00472623, No Iterations 5
GAMG:  Solving for p, Initial residual = 0.0920841, Final residual = 0.00724951, No Iterations 4
time step continuity errors : sum local = 0.533872, global = -0.0738101, cumulative = -0.64834
smoothSolver:  Solving for omega, Initial residual = 0.0063043, Final residual = 0.000266249, No Iterations 2
smoothSolver:  Solving for k, Initial residual = 0.0305312, Final residual = 0.00130908, No Iterations 2
ExecutionTime = 0.37 s  ClockTime = 0 s

Time = 22

smoothSolver:  Solving for Ux, Initial residual = 0.0211909, Final residual = 0.00132037, No Iterations 5
smoothSolver:  Solving for Uy, Initial residual = 0.0621752, Final residual = 0.00458789, No Iterations 5
GAMG:  Solving for p, Initial residual = 0.0912212, Final residual = 0.00682419, No Iterations 4
time step continuity errors : sum local = 0.492213, global = -0.0644627, cumulative = -0.712803
smoothSolver:  Solving for omega, Initial residual = 0.00610221, Final residual = 0.000253191, No Iterations 2
smoothSolver:  Solving for k, Initial residual = 0.0294329, Final residual = 0.00125165, No Iterations 2
ExecutionTime = 0.38 s  ClockTime = 0 s

Time = 23

smoothSolver:  Solving for Ux, Initial residual = 0.0198803, Final residual = 0.00123865, No Iterations 5
smoothSolver:  Solving for Uy, Initial residual = 0.0588646, Final residual = 0.004408, No Iterations 5
GAMG:  Solving for p, Initial residual = 0.0895141, Final residual = 0.00642121, No Iterations 4
time step continuity errors : sum local = 0.455652, global = -0.0508276, cumulative = -0.76363
smoothSolver:  Solving for omega, Initial residual = 0.00595697, Final residual = 0.000249944, No Iterations 2
smoothSolver:  Solving for k, Initial residual = 0.028325, Final residual = 0.0012157, No Iterations 2
ExecutionTime = 0.39 s  ClockTime = 0 s

Time = 24

smoothSolver:  Solving for Ux, Initial residual = 0.0185354, Final residual = 0.00116107, No Iterations 5
smoothSolver:  Solving for Uy, Initial residual = 0.0553971, Final residual = 0.00419548, No Iterations 5
GAMG:  Solving for p, Initial residual = 0.0872528, Final residual = 0.00615431, No Iterations 4
time step continuity errors : sum local = 0.430921, global = -0.0372505, cumulative = -0.800881
smoothSolver:  Solving for omega, Initial residual = 0.00583399, Final residual = 0.000241596, No Iterations 2
smoothSolver:  Solving for k, Initial residual = 0.0272988, Final residual = 0.00115894, No Iterations 2
ExecutionTime = 0.41 s  ClockTime = 0 s

Time = 25

smoothSolver:  Solving for Ux, Initial residual = 0.0172442, Final residual = 0.00108877, No Iterations 5
smoothSolver:  Solving for Uy, Initial residual = 0.0517748, Final residual = 0.00395363, No Iterations 5
GAMG:  Solving for p, Initial residual = 0.0854524, Final residual = 0.00606745, No Iterations 4
time step continuity errors : sum local = 0.419363, global = -0.0325174, cumulative = -0.833398
smoothSolver:  Solving for omega, Initial residual = 0.00570946, Final residual = 0.000231816, No Iterations 2
smoothSolver:  Solving for k, Initial residual = 0.0261679, Final residual = 0.00111799, No Iterations 2
ExecutionTime = 0.42 s  ClockTime = 0 s

Time = 26

smoothSolver:  Solving for Ux, Initial residual = 0.0161077, Final residual = 0.00102269, No Iterations 5
smoothSolver:  Solving for Uy, Initial residual = 0.0481287, Final residual = 0.00369651, No Iterations 5
GAMG:  Solving for p, Initial residual = 0.0832512, Final residual = 0.00596947, No Iterations 4
time step continuity errors : sum local = 0.408096, global = -0.0358829, cumulative = -0.869281
smoothSolver:  Solving for omega, Initial residual = 0.00562987, Final residual = 0.000224915, No Iterations 2
smoothSolver:  Solving for k, Initial residual = 0.0254078, Final residual = 0.00115701, No Iterations 2
ExecutionTime = 0.43 s  ClockTime = 1 s

Time = 27

smoothSolver:  Solving for Ux, Initial residual = 0.0150962, Final residual = 0.000963178, No Iterations 5
smoothSolver:  Solving for Uy, Initial residual = 0.0447006, Final residual = 0.00344066, No Iterations 5
GAMG:  Solving for p, Initial residual = 0.0806518, Final residual = 0.00573935, No Iterations 4
time step continuity errors : sum local = 0.389465, global = -0.0418237, cumulative = -0.911105
smoothSolver:  Solving for omega, Initial residual = 0.00546392, Final residual = 0.000218519, No Iterations 2
smoothSolver:  Solving for k, Initial residual = 0.0243886, Final residual = 0.00108519, No Iterations 2
ExecutionTime = 0.44 s  ClockTime = 1 s

Time = 28

smoothSolver:  Solving for Ux, Initial residual = 0.0141628, Final residual = 0.000911327, No Iterations 5
smoothSolver:  Solving for Uy, Initial residual = 0.0416039, Final residual = 0.00320442, No Iterations 5
GAMG:  Solving for p, Initial residual = 0.0774191, Final residual = 0.00527009, No Iterations 4
time step continuity errors : sum local = 0.362083, global = -0.0474171, cumulative = -0.958522
smoothSolver:  Solving for omega, Initial residual = 0.00526163, Final residual = 0.000204326, No Iterations 2
smoothSolver:  Solving for k, Initial residual = 0.0235589, Final residual = 0.00101793, No Iterations 2
ExecutionTime = 0.46 s  ClockTime = 1 s

Time = 29

smoothSolver:  Solving for Ux, Initial residual = 0.0133437, Final residual = 0.000868179, No Iterations 5
smoothSolver:  Solving for Uy, Initial residual = 0.0389551, Final residual = 0.00300305, No Iterations 5
GAMG:  Solving for p, Initial residual = 0.0743759, Final residual = 0.00732357, No Iterations 3
time step continuity errors : sum local = 0.516836, global = 0.0495005, cumulative = -0.909022
smoothSolver:  Solving for omega, Initial residual = 0.00518664, Final residual = 0.000198581, No Iterations 2
smoothSolver:  Solving for k, Initial residual = 0.0227195, Final residual = 0.00102255, No Iterations 2
ExecutionTime = 0.47 s  ClockTime = 1 s

Time = 30

smoothSolver:  Solving for Ux, Initial residual = 0.012726, Final residual = 0.000840307, No Iterations 5
smoothSolver:  Solving for Uy, Initial residual = 0.0367258, Final residual = 0.00284147, No Iterations 5
GAMG:  Solving for p, Initial residual = 0.073966, Final residual = 0.00718547, No Iterations 3
time step continuity errors : sum local = 0.514069, global = -0.0218096, cumulative = -0.930831
smoothSolver:  Solving for omega, Initial residual = 0.00510968, Final residual = 0.000191996, No Iterations 2
smoothSolver:  Solving for k, Initial residual = 0.0219983, Final residual = 0.000963614, No Iterations 2
ExecutionTime = 0.48 s  ClockTime = 1 s

Time = 31

smoothSolver:  Solving for Ux, Initial residual = 0.0122068, Final residual = 0.000810005, No Iterations 5
smoothSolver:  Solving for Uy, Initial residual = 0.0353035, Final residual = 0.00274229, No Iterations 5
GAMG:  Solving for p, Initial residual = 0.0712616, Final residual = 0.00615294, No Iterations 3
time step continuity errors : sum local = 0.451764, global = 0.0389817, cumulative = -0.891849
smoothSolver:  Solving for omega, Initial residual = 0.00507899, Final residual = 0.000188092, No Iterations 2
smoothSolver:  Solving for k, Initial residual = 0.0210888, Final residual = 0.000918205, No Iterations 2
ExecutionTime = 0.49 s  ClockTime = 1 s

Time = 32

smoothSolver:  Solving for Ux, Initial residual = 0.0118558, Final residual = 0.000798563, No Iterations 5
smoothSolver:  Solving for Uy, Initial residual = 0.0345493, Final residual = 0.00269074, No Iterations 5
GAMG:  Solving for p, Initial residual = 0.0705765, Final residual = 0.00647146, No Iterations 3
time step continuity errors : sum local = 0.482957, global = -0.0558867, cumulative = -0.947736
smoothSolver:  Solving for omega, Initial residual = 0.00501576, Final residual = 0.000191214, No Iterations 2
smoothSolver:  Solving for k, Initial residual = 0.0202932, Final residual = 0.00088987, No Iterations 2
ExecutionTime = 0.5 s  ClockTime = 1 s

Time = 33

smoothSolver:  Solving for Ux, Initial residual = 0.0115887, Final residual = 0.000795227, No Iterations 5
smoothSolver:  Solving for Uy, Initial residual = 0.0338729, Final residual = 0.00264536, No Iterations 5
GAMG:  Solving for p, Initial residual = 0.0693051, Final residual = 0.00581193, No Iterations 3
time step continuity errors : sum local = 0.449486, global = 0.0645297, cumulative = -0.883206
smoothSolver:  Solving for omega, Initial residual = 0.00508152, Final residual = 0.000189868, No Iterations 2
smoothSolver:  Solving for k, Initial residual = 0.0194954, Final residual = 0.000851126, No Iterations 2
ExecutionTime = 0.52 s  ClockTime = 1 s

Time = 34

smoothSolver:  Solving for Ux, Initial residual = 0.0114204, Final residual = 0.000800615, No Iterations 5
smoothSolver:  Solving for Uy, Initial residual = 0.0337968, Final residual = 0.00262669, No Iterations 5
GAMG:  Solving for p, Initial residual = 0.0697421, Final residual = 0.00626666, No Iterations 3
time step continuity errors : sum local = 0.491079, global = -0.082406, cumulative = -0.965612
smoothSolver:  Solving for omega, Initial residual = 0.00500134, Final residual = 0.000187855, No Iterations 2
smoothSolver:  Solving for k, Initial residual = 0.0187269, Final residual = 0.000809282, No Iterations 2
ExecutionTime = 0.53 s  ClockTime = 1 s

Time = 35

smoothSolver:  Solving for Ux, Initial residual = 0.0113502, Final residual = 0.000813048, No Iterations 5
smoothSolver:  Solving for Uy, Initial residual = 0.0337571, Final residual = 0.0026174, No Iterations 5
GAMG:  Solving for p, Initial residual = 0.069458, Final residual = 0.00643787, No Iterations 3
time step continuity errors : sum local = 0.516546, global = 0.0880447, cumulative = -0.877568
smoothSolver:  Solving for omega, Initial residual = 0.00496657, Final residual = 0.000182021, No Iterations 2
smoothSolver:  Solving for k, Initial residual = 0.0180752, Final residual = 0.000800871, No Iterations 2
ExecutionTime = 0.54 s  ClockTime = 1 s

Time = 36

smoothSolver:  Solving for Ux, Initial residual = 0.0112587, Final residual = 0.000818049, No Iterations 5
smoothSolver:  Solving for Uy, Initial residual = 0.0341218, Final residual = 0.00263295, No Iterations 5
GAMG:  Solving for p, Initial residual = 0.0704334, Final residual = 0.00682385, No Iterations 3
time step continuity errors : sum local = 0.553598, global = -0.0907447, cumulative = -0.968312
smoothSolver:  Solving for omega, Initial residual = 0.00491358, Final residual = 0.000183594, No Iterations 2
smoothSolver:  Solving for k, Initial residual = 0.0175142, Final residual = 0.000779013, No Iterations 2
ExecutionTime = 0.55 s  ClockTime = 1 s

Time = 37

smoothSolver:  Solving for Ux, Initial residual = 0.011252, Final residual = 0.000827707, No Iterations 5
smoothSolver:  Solving for Uy, Initial residual = 0.0343863, Final residual = 0.00264715, No Iterations 5
GAMG:  Solving for p, Initial residual = 0.0702115, Final residual = 0.00654929, No Iterations 3
time step continuity errors : sum local = 0.547116, global = 0.100048, cumulative = -0.868264
smoothSolver:  Solving for omega, Initial residual = 0.0050394, Final residual = 0.000179977, No Iterations 2
smoothSolver:  Solving for k, Initial residual = 0.0170426, Final residual = 0.0007835, No Iterations 2
ExecutionTime = 0.56 s  ClockTime = 1 s

Time = 38

smoothSolver:  Solving for Ux, Initial residual = 0.0112565, Final residual = 0.000832883, No Iterations 5
smoothSolver:  Solving for Uy, Initial residual = 0.034726, Final residual = 0.00266352, No Iterations 5
GAMG:  Solving for p, Initial residual = 0.0706579, Final residual = 0.00694959, No Iterations 3
time step continuity errors : sum local = 0.588756, global = -0.0946515, cumulative = -0.962916
smoothSolver:  Solving for omega, Initial residual = 0.0050246, Final residual = 0.000185356, No Iterations 2
smoothSolver:  Solving for k, Initial residual = 0.0165051, Final residual = 0.000767645, No Iterations 2
ExecutionTime = 0.57 s  ClockTime = 1 s

Time = 39

smoothSolver:  Solving for Ux, Initial residual = 0.0113005, Final residual = 0.000842697, No Iterations 5
smoothSolver:  Solving for Uy, Initial residual = 0.034878, Final residual = 0.00267083, No Iterations 5
GAMG:  Solving for p, Initial residual = 0.06993, Final residual = 0.00642622, No Iterations 3
time step continuity errors : sum local = 0.56335, global = 0.105036, cumulative = -0.85788
smoothSolver:  Solving for omega, Initial residual = 0.00511385, Final residual = 0.000186493, No Iterations 2
smoothSolver:  Solving for k, Initial residual = 0.0160982, Final residual = 0.000778823, No Iterations 2
ExecutionTime = 0.58 s  ClockTime = 1 s

Time = 40

smoothSolver:  Solving for Ux, Initial residual = 0.0113475, Final residual = 0.000846788, No Iterations 5
smoothSolver:  Solving for Uy, Initial residual = 0.0351531, Final residual = 0.00268357, No Iterations 5
GAMG:  Solving for p, Initial residual = 0.0703142, Final residual = 0.00692814, No Iterations 3
time step continuity errors : sum local = 0.617675, global = -0.0984955, cumulative = -0.956376
smoothSolver:  Solving for omega, Initial residual = 0.00511869, Final residual = 0.000189284, No Iterations 2
smoothSolver:  Solving for k, Initial residual = 0.0157641, Final residual = 0.000775231, No Iterations 2
ExecutionTime = 0.6 s  ClockTime = 1 s

Time = 41

smoothSolver:  Solving for Ux, Initial residual = 0.0113792, Final residual = 0.000850848, No Iterations 5
smoothSolver:  Solving for Uy, Initial residual = 0.0353044, Final residual = 0.00269383, No Iterations 5
GAMG:  Solving for p, Initial residual = 0.0689643, Final residual = 0.00636455, No Iterations 3
time step continuity errors : sum local = 0.589248, global = 0.106905, cumulative = -0.84947
smoothSolver:  Solving for omega, Initial residual = 0.00494127, Final residual = 0.000194435, No Iterations 2
smoothSolver:  Solving for k, Initial residual = 0.0154589, Final residual = 0.000780669, No Iterations 2
ExecutionTime = 0.61 s  ClockTime = 1 s

Time = 42

smoothSolver:  Solving for Ux, Initial residual = 0.0114529, Final residual = 0.000851501, No Iterations 5
smoothSolver:  Solving for Uy, Initial residual = 0.0354921, Final residual = 0.00270678, No Iterations 5
GAMG:  Solving for p, Initial residual = 0.0687467, Final residual = 0.0067409, No Iterations 3
time step continuity errors : sum local = 0.634969, global = -0.0994216, cumulative = -0.948892
smoothSolver:  Solving for omega, Initial residual = 0.0048255, Final residual = 0.000193947, No Iterations 2
smoothSolver:  Solving for k, Initial residual = 0.0151658, Final residual = 0.000792101, No Iterations 2
ExecutionTime = 0.62 s  ClockTime = 1 s

Time = 43

smoothSolver:  Solving for Ux, Initial residual = 0.0114733, Final residual = 0.000849158, No Iterations 5
smoothSolver:  Solving for Uy, Initial residual = 0.0355559, Final residual = 0.00271666, No Iterations 5
GAMG:  Solving for p, Initial residual = 0.0671445, Final residual = 0.00621119, No Iterations 3
time step continuity errors : sum local = 0.608109, global = 0.104032, cumulative = -0.844861
smoothSolver:  Solving for omega, Initial residual = 0.00484851, Final residual = 0.000198556, No Iterations 2
smoothSolver:  Solving for k, Initial residual = 0.0149488, Final residual = 0.00081187, No Iterations 2
ExecutionTime = 0.63 s  ClockTime = 1 s

Time = 44

smoothSolver:  Solving for Ux, Initial residual = 0.0115672, Final residual = 0.000849473, No Iterations 5
smoothSolver:  Solving for Uy, Initial residual = 0.035622, Final residual = 0.00272924, No Iterations 5
GAMG:  Solving for p, Initial residual = 0.0669248, Final residual = 0.00650796, No Iterations 3
time step continuity errors : sum local = 0.647959, global = -0.098763, cumulative = -0.943623
smoothSolver:  Solving for omega, Initial residual = 0.00482, Final residual = 0.000205749, No Iterations 2
smoothSolver:  Solving for k, Initial residual = 0.0147917, Final residual = 0.000848402, No Iterations 2
ExecutionTime = 0.64 s  ClockTime = 1 s

Time = 45

smoothSolver:  Solving for Ux, Initial residual = 0.0115956, Final residual = 0.000843472, No Iterations 5
smoothSolver:  Solving for Uy, Initial residual = 0.0357011, Final residual = 0.00273978, No Iterations 5
GAMG:  Solving for p, Initial residual = 0.0651375, Final residual = 0.00610228, No Iterations 3
time step continuity errors : sum local = 0.629957, global = 0.103655, cumulative = -0.839968
smoothSolver:  Solving for omega, Initial residual = 0.00491564, Final residual = 0.000211313, No Iterations 2
smoothSolver:  Solving for k, Initial residual = 0.0146249, Final residual = 0.000870499, No Iterations 2
ExecutionTime = 0.66 s  ClockTime = 1 s

Time = 46

smoothSolver:  Solving for Ux, Initial residual = 0.0117076, Final residual = 0.00084531, No Iterations 5
smoothSolver:  Solving for Uy, Initial residual = 0.0358145, Final residual = 0.00275539, No Iterations 5
GAMG:  Solving for p, Initial residual = 0.0649207, Final residual = 0.00636371, No Iterations 3
time step continuity errors : sum local = 0.66789, global = -0.0968598, cumulative = -0.936828
smoothSolver:  Solving for omega, Initial residual = 0.00493363, Final residual = 0.000221662, No Iterations 2
smoothSolver:  Solving for k, Initial residual = 0.014551, Final residual = 0.000902127, No Iterations 2
ExecutionTime = 0.67 s  ClockTime = 1 s

Time = 47

smoothSolver:  Solving for Ux, Initial residual = 0.0117674, Final residual = 0.000842214, No Iterations 5
smoothSolver:  Solving for Uy, Initial residual = 0.0359921, Final residual = 0.00276849, No Iterations 5
GAMG:  Solving for p, Initial residual = 0.0632826, Final residual = 0.00595946, No Iterations 3
time step continuity errors : sum local = 0.646687, global = 0.102778, cumulative = -0.83405
smoothSolver:  Solving for omega, Initial residual = 0.00500184, Final residual = 0.00022559, No Iterations 2
smoothSolver:  Solving for k, Initial residual = 0.0145656, Final residual = 0.000937694, No Iterations 2
ExecutionTime = 0.68 s  ClockTime = 1 s

Time = 48

smoothSolver:  Solving for Ux, Initial residual = 0.0119266, Final residual = 0.000852124, No Iterations 5
smoothSolver:  Solving for Uy, Initial residual = 0.0362539, Final residual = 0.00278967, No Iterations 5
GAMG:  Solving for p, Initial residual = 0.0631178, Final residual = 0.00612394, No Iterations 3
time step continuity errors : sum local = 0.67492, global = -0.0960315, cumulative = -0.930081
smoothSolver:  Solving for omega, Initial residual = 0.00501312, Final residual = 0.000227633, No Iterations 2
smoothSolver:  Solving for k, Initial residual = 0.0144909, Final residual = 0.000967247, No Iterations 2
ExecutionTime = 0.69 s  ClockTime = 1 s

Time = 49

smoothSolver:  Solving for Ux, Initial residual = 0.0120576, Final residual = 0.000863063, No Iterations 5
smoothSolver:  Solving for Uy, Initial residual = 0.0366299, Final residual = 0.00282132, No Iterations 5
GAMG:  Solving for p, Initial residual = 0.0625106, Final residual = 0.00570917, No Iterations 3
time step continuity errors : sum local = 0.647953, global = 0.101271, cumulative = -0.82881
smoothSolver:  Solving for omega, Initial residual = 0.00501239, Final residual = 0.000231238, No Iterations 2
smoothSolver:  Solving for k, Initial residual = 0.0144974, Final residual = 0.00099139, No Iterations 2
ExecutionTime = 0.7 s  ClockTime = 1 s

Time = 50

smoothSolver:  Solving for Ux, Initial residual = 0.0122863, Final residual = 0.000884812, No Iterations 5
smoothSolver:  Solving for Uy, Initial residual = 0.0371367, Final residual = 0.00286918, No Iterations 5
GAMG:  Solving for p, Initial residual = 0.0631548, Final residual = 0.00578962, No Iterations 3
time step continuity errors : sum local = 0.664974, global = -0.0953518, cumulative = -0.924162
smoothSolver:  Solving for omega, Initial residual = 0.00507653, Final residual = 0.000234725, No Iterations 2
smoothSolver:  Solving for k, Initial residual = 0.0145654, Final residual = 0.00101429, No Iterations 2
ExecutionTime = 0.71 s  ClockTime = 1 s

Time = 51

smoothSolver:  Solving for Ux, Initial residual = 0.012554, Final residual = 0.000908351, No Iterations 5
smoothSolver:  Solving for Uy, Initial residual = 0.0377553, Final residual = 0.00292778, No Iterations 5
GAMG:  Solving for p, Initial residual = 0.0632501, Final residual = 0.00552668, No Iterations 3
time step continuity errors : sum local = 0.650238, global = 0.0993446, cumulative = -0.824818
smoothSolver:  Solving for omega, Initial residual = 0.00516539, Final residual = 0.000240017, No Iterations 2
smoothSolver:  Solving for k, Initial residual = 0.0147022, Final residual = 0.00104221, No Iterations 2
ExecutionTime = 0.73 s  ClockTime = 1 s

Time = 52

smoothSolver:  Solving for Ux, Initial residual = 0.012873, Final residual = 0.000932929, No Iterations 5
smoothSolver:  Solving for Uy, Initial residual = 0.0384962, Final residual = 0.00299735, No Iterations 5
GAMG:  Solving for p, Initial residual = 0.0644835, Final residual = 0.00563977, No Iterations 3
time step continuity errors : sum local = 0.668577, global = -0.0950727, cumulative = -0.91989
smoothSolver:  Solving for omega, Initial residual = 0.00529045, Final residual = 0.000244313, No Iterations 2
smoothSolver:  Solving for k, Initial residual = 0.0149049, Final residual = 0.00105936, No Iterations 2
ExecutionTime = 0.74 s  ClockTime = 1 s

Time = 53

smoothSolver:  Solving for Ux, Initial residual = 0.0131988, Final residual = 0.000955919, No Iterations 5
smoothSolver:  Solving for Uy, Initial residual = 0.0392691, Final residual = 0.00307542, No Iterations 5
GAMG:  Solving for p, Initial residual = 0.0653229, Final residual = 0.00551411, No Iterations 3
time step continuity errors : sum local = 0.666133, global = 0.0977274, cumulative = -0.822163
smoothSolver:  Solving for omega, Initial residual = 0.00537297, Final residual = 0.000249057, No Iterations 2
smoothSolver:  Solving for k, Initial residual = 0.0151067, Final residual = 0.00107883, No Iterations 2
ExecutionTime = 0.75 s  ClockTime = 1 s

Time = 54

smoothSolver:  Solving for Ux, Initial residual = 0.013516, Final residual = 0.000975711, No Iterations 5
smoothSolver:  Solving for Uy, Initial residual = 0.0401633, Final residual = 0.00316338, No Iterations 5
GAMG:  Solving for p, Initial residual = 0.0671626, Final residual = 0.00571227, No Iterations 3
time step continuity errors : sum local = 0.692431, global = -0.0971744, cumulative = -0.919337
smoothSolver:  Solving for omega, Initial residual = 0.00550601, Final residual = 0.000254017, No Iterations 2
smoothSolver:  Solving for k, Initial residual = 0.0154017, Final residual = 0.00110843, No Iterations 2
ExecutionTime = 0.76 s  ClockTime = 1 s

Time = 55

smoothSolver:  Solving for Ux, Initial residual = 0.0138031, Final residual = 0.000993088, No Iterations 5
smoothSolver:  Solving for Uy, Initial residual = 0.0411061, Final residual = 0.003257, No Iterations 5
GAMG:  Solving for p, Initial residual = 0.0684383, Final residual = 0.00563028, No Iterations 3
time step continuity errors : sum local = 0.692612, global = 0.0990108, cumulative = -0.820326
smoothSolver:  Solving for omega, Initial residual = 0.00568175, Final residual = 0.000263784, No Iterations 2
smoothSolver:  Solving for k, Initial residual = 0.0157794, Final residual = 0.00113586, No Iterations 2
ExecutionTime = 0.77 s  ClockTime = 1 s

Time = 56

smoothSolver:  Solving for Ux, Initial residual = 0.0140383, Final residual = 0.00100613, No Iterations 5
smoothSolver:  Solving for Uy, Initial residual = 0.0420997, Final residual = 0.00335322, No Iterations 5
GAMG:  Solving for p, Initial residual = 0.0703345, Final residual = 0.00581474, No Iterations 3
time step continuity errors : sum local = 0.715224, global = -0.0960983, cumulative = -0.916425
smoothSolver:  Solving for omega, Initial residual = 0.00570733, Final residual = 0.000266565, No Iterations 2
smoothSolver:  Solving for k, Initial residual = 0.0161156, Final residual = 0.00116195, No Iterations 2
ExecutionTime = 0.79 s  ClockTime = 1 s

Time = 57

smoothSolver:  Solving for Ux, Initial residual = 0.0142512, Final residual = 0.00101719, No Iterations 5
smoothSolver:  Solving for Uy, Initial residual = 0.0430476, Final residual = 0.00344627, No Iterations 5
GAMG:  Solving for p, Initial residual = 0.0716178, Final residual = 0.00570926, No Iterations 3
time step continuity errors : sum local = 0.711557, global = 0.0979146, cumulative = -0.81851
smoothSolver:  Solving for omega, Initial residual = 0.00595554, Final residual = 0.000270312, No Iterations 2
smoothSolver:  Solving for k, Initial residual = 0.0163818, Final residual = 0.00118503, No Iterations 2
ExecutionTime = 0.8 s  ClockTime = 1 s

Time = 58

smoothSolver:  Solving for Ux, Initial residual = 0.0143998, Final residual = 0.00102453, No Iterations 5
smoothSolver:  Solving for Uy, Initial residual = 0.0439801, Final residual = 0.00353478, No Iterations 5
GAMG:  Solving for p, Initial residual = 0.0737994, Final residual = 0.00596767, No Iterations 3
time step continuity errors : sum local = 0.743424, global = -0.0948977, cumulative = -0.913408
smoothSolver:  Solving for omega, Initial residual = 0.00602097, Final residual = 0.000276746, No Iterations 2
smoothSolver:  Solving for k, Initial residual = 0.0168585, Final residual = 0.0012293, No Iterations 2
ExecutionTime = 0.81 s  ClockTime = 1 s

Time = 59

smoothSolver:  Solving for Ux, Initial residual = 0.0145419, Final residual = 0.00102881, No Iterations 5
smoothSolver:  Solving for Uy, Initial residual = 0.044818, Final residual = 0.003616, No Iterations 5
GAMG:  Solving for p, Initial residual = 0.0752805, Final residual = 0.00600935, No Iterations 3
time step continuity errors : sum local = 0.757447, global = 0.102789, cumulative = -0.810618
smoothSolver:  Solving for omega, Initial residual = 0.00625561, Final residual = 0.000280522, No Iterations 2
smoothSolver:  Solving for k, Initial residual = 0.0172922, Final residual = 0.00127545, No Iterations 2
ExecutionTime = 0.82 s  ClockTime = 1 s

Time = 60

smoothSolver:  Solving for Ux, Initial residual = 0.0146355, Final residual = 0.00103071, No Iterations 5
smoothSolver:  Solving for Uy, Initial residual = 0.0455705, Final residual = 0.00368713, No Iterations 5
GAMG:  Solving for p, Initial residual = 0.0777509, Final residual = 0.00653346, No Iterations 3
time step continuity errors : sum local = 0.821868, global = -0.0997644, cumulative = -0.910383
smoothSolver:  Solving for omega, Initial residual = 0.00630111, Final residual = 0.000282978, No Iterations 2
smoothSolver:  Solving for k, Initial residual = 0.0176416, Final residual = 0.00132617, No Iterations 2
ExecutionTime = 0.84 s  ClockTime = 1 s

Time = 61

smoothSolver:  Solving for Ux, Initial residual = 0.014702, Final residual = 0.0010297, No Iterations 5
smoothSolver:  Solving for Uy, Initial residual = 0.0461881, Final residual = 0.00374744, No Iterations 5
GAMG:  Solving for p, Initial residual = 0.0791483, Final residual = 0.00661688, No Iterations 3
time step continuity errors : sum local = 0.841747, global = 0.113161, cumulative = -0.797222
smoothSolver:  Solving for omega, Initial residual = 0.00631142, Final residual = 0.000289377, No Iterations 2
smoothSolver:  Solving for k, Initial residual = 0.0179579, Final residual = 0.00135356, No Iterations 2
ExecutionTime = 0.85 s  ClockTime = 1 s

Time = 62

smoothSolver:  Solving for Ux, Initial residual = 0.0147408, Final residual = 0.00102734, No Iterations 5
smoothSolver:  Solving for Uy, Initial residual = 0.0467511, Final residual = 0.00379939, No Iterations 5
GAMG:  Solving for p, Initial residual = 0.0811107, Final residual = 0.00721886, No Iterations 3
time step continuity errors : sum local = 0.91835, global = -0.108285, cumulative = -0.905507
smoothSolver:  Solving for omega, Initial residual = 0.00639279, Final residual = 0.000281483, No Iterations 2
smoothSolver:  Solving for k, Initial residual = 0.0182827, Final residual = 0.00140014, No Iterations 2
ExecutionTime = 0.87 s  ClockTime = 1 s

Time = 63

smoothSolver:  Solving for Ux, Initial residual = 0.014772, Final residual = 0.00102358, No Iterations 5
smoothSolver:  Solving for Uy, Initial residual = 0.0472054, Final residual = 0.00383863, No Iterations 5
GAMG:  Solving for p, Initial residual = 0.0821981, Final residual = 0.0072272, No Iterations 3
time step continuity errors : sum local = 0.934602, global = 0.123519, cumulative = -0.781988
smoothSolver:  Solving for omega, Initial residual = 0.00636449, Final residual = 0.000274513, No Iterations 2
smoothSolver:  Solving for k, Initial residual = 0.0185088, Final residual = 0.00143202, No Iterations 2
ExecutionTime = 0.88 s  ClockTime = 1 s

Time = 64

smoothSolver:  Solving for Ux, Initial residual = 0.0147909, Final residual = 0.00102151, No Iterations 5
smoothSolver:  Solving for Uy, Initial residual = 0.0476493, Final residual = 0.00386853, No Iterations 5
GAMG:  Solving for p, Initial residual = 0.0847819, Final residual = 0.00776019, No Iterations 3
time step continuity errors : sum local = 1.00939, global = -0.11784, cumulative = -0.899827
smoothSolver:  Solving for omega, Initial residual = 0.00644133, Final residual = 0.000273669, No Iterations 2
smoothSolver:  Solving for k, Initial residual = 0.018637, Final residual = 0.00145529, No Iterations 2
ExecutionTime = 0.89 s  ClockTime = 1 s

Time = 65

smoothSolver:  Solving for Ux, Initial residual = 0.0148476, Final residual = 0.0010203, No Iterations 5
smoothSolver:  Solving for Uy, Initial residual = 0.047958, Final residual = 0.00388379, No Iterations 5
GAMG:  Solving for p, Initial residual = 0.0865742, Final residual = 0.00777938, No Iterations 3
time step continuity errors : sum local = 1.03387, global = 0.137573, cumulative = -0.762255
smoothSolver:  Solving for omega, Initial residual = 0.00652305, Final residual = 0.000272328, No Iterations 2
smoothSolver:  Solving for k, Initial residual = 0.0188816, Final residual = 0.00146438, No Iterations 2
ExecutionTime = 0.9 s  ClockTime = 1 s

Time = 66

smoothSolver:  Solving for Ux, Initial residual = 0.0148875, Final residual = 0.00102046, No Iterations 5
smoothSolver:  Solving for Uy, Initial residual = 0.0482253, Final residual = 0.00389025, No Iterations 5
GAMG:  Solving for p, Initial residual = 0.0887077, Final residual = 0.00824542, No Iterations 3
time step continuity errors : sum local = 1.10208, global = -0.130251, cumulative = -0.892506
smoothSolver:  Solving for omega, Initial residual = 0.00662921, Final residual = 0.000272328, No Iterations 2
smoothSolver:  Solving for k, Initial residual = 0.0190008, Final residual = 0.00147213, No Iterations 2
ExecutionTime = 0.92 s  ClockTime = 1 s

Time = 67

smoothSolver:  Solving for Ux, Initial residual = 0.0149534, Final residual = 0.00102294, No Iterations 5
smoothSolver:  Solving for Uy, Initial residual = 0.0483163, Final residual = 0.00388241, No Iterations 5
GAMG:  Solving for p, Initial residual = 0.089214, Final residual = 0.00822644, No Iterations 3
time step continuity errors : sum local = 1.11763, global = 0.145719, cumulative = -0.746787
smoothSolver:  Solving for omega, Initial residual = 0.00668391, Final residual = 0.000275193, No Iterations 2
smoothSolver:  Solving for k, Initial residual = 0.0191002, Final residual = 0.00146771, No Iterations 2
ExecutionTime = 0.93 s  ClockTime = 1 s

Time = 68

smoothSolver:  Solving for Ux, Initial residual = 0.0149944, Final residual = 0.00102669, No Iterations 5
smoothSolver:  Solving for Uy, Initial residual = 0.0482893, Final residual = 0.00386356, No Iterations 5
GAMG:  Solving for p, Initial residual = 0.0893229, Final residual = 0.00860928, No Iterations 3
time step continuity errors : sum local = 1.16602, global = -0.132252, cumulative = -0.879039
smoothSolver:  Solving for omega, Initial residual = 0.00675162, Final residual = 0.000276589, No Iterations 2
smoothSolver:  Solving for k, Initial residual = 0.0192752, Final residual = 0.001473, No Iterations 2
ExecutionTime = 0.94 s  ClockTime = 1 s

Time = 69

smoothSolver:  Solving for Ux, Initial residual = 0.0150423, Final residual = 0.00103063, No Iterations 5
smoothSolver:  Solving for Uy, Initial residual = 0.0480943, Final residual = 0.003828, No Iterations 5
GAMG:  Solving for p, Initial residual = 0.0862455, Final residual = 0.0085198, No Iterations 3
time step continuity errors : sum local = 1.16525, global = 0.14143, cumulative = -0.737609
smoothSolver:  Solving for omega, Initial residual = 0.00668491, Final residual = 0.000276094, No Iterations 2
smoothSolver:  Solving for k, Initial residual = 0.0192897, Final residual = 0.0014572, No Iterations 2
ExecutionTime = 0.96 s  ClockTime = 1 s

Time = 70

smoothSolver:  Solving for Ux, Initial residual = 0.0150398, Final residual = 0.00103235, No Iterations 5
smoothSolver:  Solving for Uy, Initial residual = 0.0479025, Final residual = 0.00378207, No Iterations 5
GAMG:  Solving for p, Initial residual = 0.0843152, Final residual = 0.00512405, No Iterations 4
time step continuity errors : sum local = 0.700318, global = 0.0594715, cumulative = -0.678137
smoothSolver:  Solving for omega, Initial residual = 0.00656078, Final residual = 0.00026972, No Iterations 2
smoothSolver:  Solving for k, Initial residual = 0.019189, Final residual = 0.00143019, No Iterations 2
ExecutionTime = 0.97 s  ClockTime = 1 s

Time = 71

smoothSolver:  Solving for Ux, Initial residual = 0.0149704, Final residual = 0.00102677, No Iterations 5
smoothSolver:  Solving for Uy, Initial residual = 0.0478667, Final residual = 0.00374582, No Iterations 5
GAMG:  Solving for p, Initial residual = 0.0806707, Final residual = 0.00801078, No Iterations 3
time step continuity errors : sum local = 1.10625, global = -0.111831, cumulative = -0.789968
smoothSolver:  Solving for omega, Initial residual = 0.00650189, Final residual = 0.000268616, No Iterations 2
smoothSolver:  Solving for k, Initial residual = 0.0189733, Final residual = 0.00139541, No Iterations 2
ExecutionTime = 0.98 s  ClockTime = 1 s

Time = 72

smoothSolver:  Solving for Ux, Initial residual = 0.0150003, Final residual = 0.00102969, No Iterations 5
smoothSolver:  Solving for Uy, Initial residual = 0.047918, Final residual = 0.00372052, No Iterations 5
GAMG:  Solving for p, Initial residual = 0.0788531, Final residual = 0.00477117, No Iterations 4
time step continuity errors : sum local = 0.666045, global = -0.0572085, cumulative = -0.847176
smoothSolver:  Solving for omega, Initial residual = 0.00646002, Final residual = 0.000261098, No Iterations 2
smoothSolver:  Solving for k, Initial residual = 0.0189705, Final residual = 0.00137688, No Iterations 2
ExecutionTime = 1 s  ClockTime = 1 s

Time = 73

smoothSolver:  Solving for Ux, Initial residual = 0.0149087, Final residual = 0.00101969, No Iterations 5
smoothSolver:  Solving for Uy, Initial residual = 0.0484222, Final residual = 0.00373928, No Iterations 5
GAMG:  Solving for p, Initial residual = 0.0762708, Final residual = 0.00458358, No Iterations 4
time step continuity errors : sum local = 0.642205, global = -0.0571759, cumulative = -0.904352
smoothSolver:  Solving for omega, Initial residual = 0.0064693, Final residual = 0.000267288, No Iterations 2
smoothSolver:  Solving for k, Initial residual = 0.0186533, Final residual = 0.00133162, No Iterations 2
ExecutionTime = 1.01 s  ClockTime = 1 s

Time = 74

smoothSolver:  Solving for Ux, Initial residual = 0.0148571, Final residual = 0.00101985, No Iterations 5
smoothSolver:  Solving for Uy, Initial residual = 0.0491882, Final residual = 0.00378838, No Iterations 5
GAMG:  Solving for p, Initial residual = 0.0746511, Final residual = 0.00488945, No Iterations 4
time step continuity errors : sum local = 0.687059, global = -0.0614558, cumulative = -0.965808
smoothSolver:  Solving for omega, Initial residual = 0.006422, Final residual = 0.000262751, No Iterations 2
smoothSolver:  Solving for k, Initial residual = 0.0185016, Final residual = 0.00132903, No Iterations 2
ExecutionTime = 1.02 s  ClockTime = 1 s

Time = 75

smoothSolver:  Solving for Ux, Initial residual = 0.0148882, Final residual = 0.00102456, No Iterations 5
smoothSolver:  Solving for Uy, Initial residual = 0.0503737, Final residual = 0.00387297, No Iterations 5
GAMG:  Solving for p, Initial residual = 0.0741012, Final residual = 0.00528107, No Iterations 4
time step continuity errors : sum local = 0.742822, global = -0.066532, cumulative = -1.03234
smoothSolver:  Solving for omega, Initial residual = 0.00647936, Final residual = 0.000269422, No Iterations 2
smoothSolver:  Solving for k, Initial residual = 0.0184192, Final residual = 0.001325, No Iterations 2
ExecutionTime = 1.04 s  ClockTime = 1 s

Time = 76

smoothSolver:  Solving for Ux, Initial residual = 0.0150043, Final residual = 0.00104041, No Iterations 5
smoothSolver:  Solving for Uy, Initial residual = 0.051989, Final residual = 0.00399455, No Iterations 5
GAMG:  Solving for p, Initial residual = 0.0738296, Final residual = 0.00566848, No Iterations 4
time step continuity errors : sum local = 0.797358, global = -0.073975, cumulative = -1.10631
smoothSolver:  Solving for omega, Initial residual = 0.0063977, Final residual = 0.000268174, No Iterations 2
smoothSolver:  Solving for k, Initial residual = 0.0184465, Final residual = 0.00134649, No Iterations 2
ExecutionTime = 1.05 s  ClockTime = 1 s

Time = 77

smoothSolver:  Solving for Ux, Initial residual = 0.0152036, Final residual = 0.00106526, No Iterations 5
smoothSolver:  Solving for Uy, Initial residual = 0.0539163, Final residual = 0.00414728, No Iterations 5
GAMG:  Solving for p, Initial residual = 0.0738598, Final residual = 0.00603294, No Iterations 4
time step continuity errors : sum local = 0.845793, global = -0.080788, cumulative = -1.1871
smoothSolver:  Solving for omega, Initial residual = 0.00639493, Final residual = 0.000262614, No Iterations 2
smoothSolver:  Solving for k, Initial residual = 0.0183907, Final residual = 0.00135838, No Iterations 2
ExecutionTime = 1.06 s  ClockTime = 1 s

Time = 78

smoothSolver:  Solving for Ux, Initial residual = 0.01546, Final residual = 0.00109452, No Iterations 5
smoothSolver:  Solving for Uy, Initial residual = 0.0560496, Final residual = 0.00432287, No Iterations 5
GAMG:  Solving for p, Initial residual = 0.0744322, Final residual = 0.00641036, No Iterations 4
time step continuity errors : sum local = 0.893735, global = -0.0883755, cumulative = -1.27548
smoothSolver:  Solving for omega, Initial residual = 0.0063481, Final residual = 0.000273308, No Iterations 2
smoothSolver:  Solving for k, Initial residual = 0.0184157, Final residual = 0.0014121, No Iterations 2
ExecutionTime = 1.08 s  ClockTime = 1 s

Time = 79

smoothSolver:  Solving for Ux, Initial residual = 0.015729, Final residual = 0.00112316, No Iterations 5
smoothSolver:  Solving for Uy, Initial residual = 0.0581704, Final residual = 0.00450397, No Iterations 5
GAMG:  Solving for p, Initial residual = 0.0762212, Final residual = 0.00671176, No Iterations 4
time step continuity errors : sum local = 0.92751, global = -0.087963, cumulative = -1.36344
smoothSolver:  Solving for omega, Initial residual = 0.00642661, Final residual = 0.000289949, No Iterations 2
smoothSolver:  Solving for k, Initial residual = 0.0184346, Final residual = 0.00149059, No Iterations 2
ExecutionTime = 1.09 s  ClockTime = 1 s

Time = 80

smoothSolver:  Solving for Ux, Initial residual = 0.0159705, Final residual = 0.00114804, No Iterations 5
smoothSolver:  Solving for Uy, Initial residual = 0.0601075, Final residual = 0.00467395, No Iterations 5
GAMG:  Solving for p, Initial residual = 0.0783736, Final residual = 0.00702958, No Iterations 4
time step continuity errors : sum local = 0.961002, global = -0.0899656, cumulative = -1.45341
smoothSolver:  Solving for omega, Initial residual = 0.00640396, Final residual = 0.000281254, No Iterations 2
smoothSolver:  Solving for k, Initial residual = 0.0184987, Final residual = 0.00157618, No Iterations 2
ExecutionTime = 1.1 s  ClockTime = 1 s

Time = 81

smoothSolver:  Solving for Ux, Initial residual = 0.0161683, Final residual = 0.00116778, No Iterations 5
smoothSolver:  Solving for Uy, Initial residual = 0.0614603, Final residual = 0.00479975, No Iterations 5
GAMG:  Solving for p, Initial residual = 0.0798754, Final residual = 0.00710212, No Iterations 4
time step continuity errors : sum local = 0.962827, global = -0.0839296, cumulative = -1.53734
smoothSolver:  Solving for omega, Initial residual = 0.00647536, Final residual = 0.000287493, No Iterations 2
smoothSolver:  Solving for k, Initial residual = 0.0184057, Final residual = 0.00168327, No Iterations 2
ExecutionTime = 1.11 s  ClockTime = 1 s

Time = 82

smoothSolver:  Solving for Ux, Initial residual = 0.0163249, Final residual = 0.00118358, No Iterations 5
smoothSolver:  Solving for Uy, Initial residual = 0.0619469, Final residual = 0.00484969, No Iterations 5
GAMG:  Solving for p, Initial residual = 0.080716, Final residual = 0.00715988, No Iterations 4
time step continuity errors : sum local = 0.96299, global = -0.076946, cumulative = -1.61428
smoothSolver:  Solving for omega, Initial residual = 0.00648751, Final residual = 0.000306821, No Iterations 2
smoothSolver:  Solving for k, Initial residual = 0.0183643, Final residual = 0.00172804, No Iterations 2
ExecutionTime = 1.13 s  ClockTime = 1 s

Time = 83

smoothSolver:  Solving for Ux, Initial residual = 0.0164511, Final residual = 0.00119817, No Iterations 5
smoothSolver:  Solving for Uy, Initial residual = 0.0615759, Final residual = 0.00483078, No Iterations 5
GAMG:  Solving for p, Initial residual = 0.0804753, Final residual = 0.00714326, No Iterations 4
time step continuity errors : sum local = 0.959698, global = -0.0699377, cumulative = -1.68422
smoothSolver:  Solving for omega, Initial residual = 0.00633866, Final residual = 0.000304837, No Iterations 2
smoothSolver:  Solving for k, Initial residual = 0.0182632, Final residual = 0.00178827, No Iterations 2
ExecutionTime = 1.14 s  ClockTime = 1 s

Time = 84

smoothSolver:  Solving for Ux, Initial residual = 0.0165541, Final residual = 0.0012142, No Iterations 5
smoothSolver:  Solving for Uy, Initial residual = 0.060995, Final residual = 0.00478441, No Iterations 5
GAMG:  Solving for p, Initial residual = 0.0793109, Final residual = 0.00723608, No Iterations 4
time step continuity errors : sum local = 0.978371, global = -0.0671281, cumulative = -1.75135
smoothSolver:  Solving for omega, Initial residual = 0.00622351, Final residual = 0.000311106, No Iterations 2
smoothSolver:  Solving for k, Initial residual = 0.0180671, Final residual = 0.0008666, No Iterations 3
ExecutionTime = 1.16 s  ClockTime = 1 s

Time = 85

smoothSolver:  Solving for Ux, Initial residual = 0.0166423, Final residual = 0.00123406, No Iterations 5
smoothSolver:  Solving for Uy, Initial residual = 0.0603712, Final residual = 0.00472921, No Iterations 5
GAMG:  Solving for p, Initial residual = 0.078333, Final residual = 0.00748238, No Iterations 4
time step continuity errors : sum local = 1.01974, global = -0.067955, cumulative = -1.8193
smoothSolver:  Solving for omega, Initial residual = 0.00617562, Final residual = 0.000317023, No Iterations 2
smoothSolver:  Solving for k, Initial residual = 0.0178529, Final residual = 0.000849386, No Iterations 3
ExecutionTime = 1.17 s  ClockTime = 1 s

Time = 86

smoothSolver:  Solving for Ux, Initial residual = 0.0167245, Final residual = 0.00125674, No Iterations 5
smoothSolver:  Solving for Uy, Initial residual = 0.0600704, Final residual = 0.00469924, No Iterations 5
GAMG:  Solving for p, Initial residual = 0.0773362, Final residual = 0.00538387, No Iterations 5
time step continuity errors : sum local = 0.741716, global = 0.0464522, cumulative = -1.77285
smoothSolver:  Solving for omega, Initial residual = 0.00619722, Final residual = 0.000321256, No Iterations 2
smoothSolver:  Solving for k, Initial residual = 0.0175231, Final residual = 0.000842137, No Iterations 3
ExecutionTime = 1.18 s  ClockTime = 1 s

Time = 87

smoothSolver:  Solving for Ux, Initial residual = 0.0168238, Final residual = 0.00127675, No Iterations 5
smoothSolver:  Solving for Uy, Initial residual = 0.0601479, Final residual = 0.00470435, No Iterations 5
GAMG:  Solving for p, Initial residual = 0.0757331, Final residual = 0.00688733, No Iterations 4
time step continuity errors : sum local = 0.957677, global = -0.0476806, cumulative = -1.82053
smoothSolver:  Solving for omega, Initial residual = 0.00620088, Final residual = 0.000322173, No Iterations 2
smoothSolver:  Solving for k, Initial residual = 0.017179, Final residual = 0.00163826, No Iterations 2
ExecutionTime = 1.19 s  ClockTime = 1 s

Time = 88

smoothSolver:  Solving for Ux, Initial residual = 0.0169461, Final residual = 0.00130343, No Iterations 5
smoothSolver:  Solving for Uy, Initial residual = 0.0601328, Final residual = 0.00472318, No Iterations 5
GAMG:  Solving for p, Initial residual = 0.075455, Final residual = 0.00556813, No Iterations 5
time step continuity errors : sum local = 0.783083, global = 0.0475351, cumulative = -1.773
smoothSolver:  Solving for omega, Initial residual = 0.00621787, Final residual = 0.000331888, No Iterations 2
smoothSolver:  Solving for k, Initial residual = 0.0168738, Final residual = 0.0016228, No Iterations 2
ExecutionTime = 1.21 s  ClockTime = 1 s

Time = 89

smoothSolver:  Solving for Ux, Initial residual = 0.0171312, Final residual = 0.00133032, No Iterations 5
smoothSolver:  Solving for Uy, Initial residual = 0.0601366, Final residual = 0.00474736, No Iterations 5
GAMG:  Solving for p, Initial residual = 0.075175, Final residual = 0.00703424, No Iterations 4
time step continuity errors : sum local = 0.998162, global = -0.00895508, cumulative = -1.78195
smoothSolver:  Solving for omega, Initial residual = 0.00627363, Final residual = 0.000338152, No Iterations 2
smoothSolver:  Solving for k, Initial residual = 0.0165496, Final residual = 0.00150508, No Iterations 2
ExecutionTime = 1.22 s  ClockTime = 1 s

Time = 90

smoothSolver:  Solving for Ux, Initial residual = 0.0173572, Final residual = 0.00136002, No Iterations 5
smoothSolver:  Solving for Uy, Initial residual = 0.0602195, Final residual = 0.0047931, No Iterations 5
GAMG:  Solving for p, Initial residual = 0.0760859, Final residual = 0.00562704, No Iterations 5
time step continuity errors : sum local = 0.800256, global = 0.0473464, cumulative = -1.73461
smoothSolver:  Solving for omega, Initial residual = 0.00626239, Final residual = 0.000353722, No Iterations 2
smoothSolver:  Solving for k, Initial residual = 0.0163784, Final residual = 0.00149507, No Iterations 2
ExecutionTime = 1.24 s  ClockTime = 1 s

Time = 91

smoothSolver:  Solving for Ux, Initial residual = 0.0176192, Final residual = 0.00139075, No Iterations 5
smoothSolver:  Solving for Uy, Initial residual = 0.0604358, Final residual = 0.00485249, No Iterations 5
GAMG:  Solving for p, Initial residual = 0.0768378, Final residual = 0.00751821, No Iterations 4
time step continuity errors : sum local = 1.06429, global = 0.0173555, cumulative = -1.71725
smoothSolver:  Solving for omega, Initial residual = 0.0061754, Final residual = 0.00034608, No Iterations 2
smoothSolver:  Solving for k, Initial residual = 0.0163457, Final residual = 0.00147065, No Iterations 2
ExecutionTime = 1.25 s  ClockTime = 1 s

Time = 92

smoothSolver:  Solving for Ux, Initial residual = 0.017928, Final residual = 0.00142599, No Iterations 5
smoothSolver:  Solving for Uy, Initial residual = 0.0607663, Final residual = 0.00493859, No Iterations 5
GAMG:  Solving for p, Initial residual = 0.0790405, Final residual = 0.0056381, No Iterations 5
time step continuity errors : sum local = 0.794987, global = 0.0375951, cumulative = -1.67965
smoothSolver:  Solving for omega, Initial residual = 0.00611139, Final residual = 0.000339892, No Iterations 2
smoothSolver:  Solving for k, Initial residual = 0.0162555, Final residual = 0.00145938, No Iterations 2
ExecutionTime = 1.26 s  ClockTime = 1 s

Time = 93

smoothSolver:  Solving for Ux, Initial residual = 0.0181994, Final residual = 0.00145741, No Iterations 5
smoothSolver:  Solving for Uy, Initial residual = 0.0614338, Final residual = 0.00504167, No Iterations 5
GAMG:  Solving for p, Initial residual = 0.0804857, Final residual = 0.0077102, No Iterations 4
time step continuity errors : sum local = 1.07618, global = 0.0465746, cumulative = -1.63308
smoothSolver:  Solving for omega, Initial residual = 0.0061062, Final residual = 0.000341647, No Iterations 2
smoothSolver:  Solving for k, Initial residual = 0.0164993, Final residual = 0.00152015, No Iterations 2
ExecutionTime = 1.28 s  ClockTime = 1 s

Time = 94

smoothSolver:  Solving for Ux, Initial residual = 0.0185306, Final residual = 0.00149536, No Iterations 5
smoothSolver:  Solving for Uy, Initial residual = 0.062016, Final residual = 0.00516037, No Iterations 5
GAMG:  Solving for p, Initial residual = 0.0838725, Final residual = 0.00830559, No Iterations 4
time step continuity errors : sum local = 1.13774, global = 0.0397728, cumulative = -1.59331
smoothSolver:  Solving for omega, Initial residual = 0.00610313, Final residual = 0.000339788, No Iterations 2
smoothSolver:  Solving for k, Initial residual = 0.0166613, Final residual = 0.00158712, No Iterations 2
ExecutionTime = 1.29 s  ClockTime = 1 s

Time = 95

smoothSolver:  Solving for Ux, Initial residual = 0.0188492, Final residual = 0.00152616, No Iterations 5
smoothSolver:  Solving for Uy, Initial residual = 0.0627778, Final residual = 0.00528253, No Iterations 5
GAMG:  Solving for p, Initial residual = 0.0860355, Final residual = 0.00853104, No Iterations 4
time step continuity errors : sum local = 1.14735, global = -0.00056252, cumulative = -1.59387
smoothSolver:  Solving for omega, Initial residual = 0.00605855, Final residual = 0.000329273, No Iterations 2
smoothSolver:  Solving for k, Initial residual = 0.0170907, Final residual = 0.00169963, No Iterations 2
ExecutionTime = 1.3 s  ClockTime = 1 s

Time = 96

smoothSolver:  Solving for Ux, Initial residual = 0.0190872, Final residual = 0.00155263, No Iterations 5
smoothSolver:  Solving for Uy, Initial residual = 0.0634636, Final residual = 0.00540225, No Iterations 5
GAMG:  Solving for p, Initial residual = 0.0877269, Final residual = 0.00811038, No Iterations 4
time step continuity errors : sum local = 1.06508, global = -0.0428087, cumulative = -1.63668
smoothSolver:  Solving for omega, Initial residual = 0.00607896, Final residual = 0.000328797, No Iterations 2
smoothSolver:  Solving for k, Initial residual = 0.0174754, Final residual = 0.000911219, No Iterations 3
ExecutionTime = 1.32 s  ClockTime = 1 s

Time = 97

smoothSolver:  Solving for Ux, Initial residual = 0.0192306, Final residual = 0.00157744, No Iterations 5
smoothSolver:  Solving for Uy, Initial residual = 0.0638494, Final residual = 0.00550983, No Iterations 5
GAMG:  Solving for p, Initial residual = 0.0890995, Final residual = 0.00788515, No Iterations 4
time step continuity errors : sum local = 1.00552, global = -0.0479971, cumulative = -1.68468
smoothSolver:  Solving for omega, Initial residual = 0.00599684, Final residual = 0.000327125, No Iterations 2
smoothSolver:  Solving for k, Initial residual = 0.0179003, Final residual = 0.00098009, No Iterations 3
ExecutionTime = 1.33 s  ClockTime = 1 s

Time = 98

smoothSolver:  Solving for Ux, Initial residual = 0.0193052, Final residual = 0.00159548, No Iterations 5
smoothSolver:  Solving for Uy, Initial residual = 0.0642232, Final residual = 0.00560954, No Iterations 5
GAMG:  Solving for p, Initial residual = 0.0906282, Final residual = 0.00797017, No Iterations 4
time step continuity errors : sum local = 0.979969, global = -0.0240678, cumulative = -1.70874
smoothSolver:  Solving for omega, Initial residual = 0.00591331, Final residual = 0.000327649, No Iterations 2
smoothSolver:  Solving for k, Initial residual = 0.0181969, Final residual = 0.00104548, No Iterations 3
ExecutionTime = 1.34 s  ClockTime = 1 s

Time = 99

smoothSolver:  Solving for Ux, Initial residual = 0.0193404, Final residual = 0.00160888, No Iterations 5
smoothSolver:  Solving for Uy, Initial residual = 0.0647044, Final residual = 0.00569668, No Iterations 5
GAMG:  Solving for p, Initial residual = 0.0925615, Final residual = 0.00832391, No Iterations 4
time step continuity errors : sum local = 0.978557, global = 0.053015, cumulative = -1.65573
smoothSolver:  Solving for omega, Initial residual = 0.00591913, Final residual = 0.000325735, No Iterations 2
smoothSolver:  Solving for k, Initial residual = 0.0185257, Final residual = 0.00110906, No Iterations 3
ExecutionTime = 1.36 s  ClockTime = 1 s

Time = 100

smoothSolver:  Solving for Ux, Initial residual = 0.0193304, Final residual = 0.00162464, No Iterations 5
smoothSolver:  Solving for Uy, Initial residual = 0.0649259, Final residual = 0.00575928, No Iterations 5
GAMG:  Solving for p, Initial residual = 0.0947441, Final residual = 0.00739006, No Iterations 5
time step continuity errors : sum local = 0.82566, global = -0.0622454, cumulative = -1.71797
smoothSolver:  Solving for omega, Initial residual = 0.00584948, Final residual = 0.000325039, No Iterations 2
smoothSolver:  Solving for k, Initial residual = 0.018728, Final residual = 0.00116294, No Iterations 3
ExecutionTime = 1.38 s  ClockTime = 1 s

streamLine streamlines write:
    seeded 10 particles
    Tracks:10
    Total samples:12948
Time = 101

smoothSolver:  Solving for Ux, Initial residual = 0.0192434, Final residual = 0.00163373, No Iterations 5
smoothSolver:  Solving for Uy, Initial residual = 0.0651376, Final residual = 0.00579764, No Iterations 5
GAMG:  Solving for p, Initial residual = 0.095798, Final residual = 0.00832577, No Iterations 4
time step continuity errors : sum local = 0.8774, global = 0.0746547, cumulative = -1.64332
smoothSolver:  Solving for omega, Initial residual = 0.00587999, Final residual = 0.000314934, No Iterations 2
smoothSolver:  Solving for k, Initial residual = 0.0190229, Final residual = 0.00121729, No Iterations 3
ExecutionTime = 1.47 s  ClockTime = 2 s

Time = 102

smoothSolver:  Solving for Ux, Initial residual = 0.0190936, Final residual = 0.00164205, No Iterations 5
smoothSolver:  Solving for Uy, Initial residual = 0.0650217, Final residual = 0.00580516, No Iterations 5
GAMG:  Solving for p, Initial residual = 0.0960387, Final residual = 0.00954403, No Iterations 4
time step continuity errors : sum local = 0.953976, global = 0.122283, cumulative = -1.52104
smoothSolver:  Solving for omega, Initial residual = 0.00577437, Final residual = 0.000314852, No Iterations 2
smoothSolver:  Solving for k, Initial residual = 0.0192757, Final residual = 0.00126156, No Iterations 3
ExecutionTime = 1.5 s  ClockTime = 2 s

Time = 103

smoothSolver:  Solving for Ux, Initial residual = 0.0189189, Final residual = 0.00164413, No Iterations 5
smoothSolver:  Solving for Uy, Initial residual = 0.0648173, Final residual = 0.00580154, No Iterations 5
GAMG:  Solving for p, Initial residual = 0.0976806, Final residual = 0.00976, No Iterations 4
time step continuity errors : sum local = 0.914155, global = 0.139485, cumulative = -1.38155
smoothSolver:  Solving for omega, Initial residual = 0.00588906, Final residual = 0.000303957, No Iterations 2
smoothSolver:  Solving for k, Initial residual = 0.0194479, Final residual = 0.00128717, No Iterations 3
ExecutionTime = 1.51 s  ClockTime = 2 s

Time = 104

smoothSolver:  Solving for Ux, Initial residual = 0.0187516, Final residual = 0.0016397, No Iterations 5
smoothSolver:  Solving for Uy, Initial residual = 0.0646709, Final residual = 0.00580229, No Iterations 5
GAMG:  Solving for p, Initial residual = 0.0988134, Final residual = 0.00983947, No Iterations 4
time step continuity errors : sum local = 0.871226, global = 0.147677, cumulative = -1.23387
smoothSolver:  Solving for omega, Initial residual = 0.00575927, Final residual = 0.000293637, No Iterations 2
smoothSolver:  Solving for k, Initial residual = 0.0196785, Final residual = 0.00131896, No Iterations 3
ExecutionTime = 1.52 s  ClockTime = 2 s

Time = 105

smoothSolver:  Solving for Ux, Initial residual = 0.0185972, Final residual = 0.00162927, No Iterations 5
smoothSolver:  Solving for Uy, Initial residual = 0.0644213, Final residual = 0.00581484, No Iterations 5
GAMG:  Solving for p, Initial residual = 0.100183, Final residual = 0.00974077, No Iterations 4
time step continuity errors : sum local = 0.824593, global = 0.149345, cumulative = -1.08453
smoothSolver:  Solving for omega, Initial residual = 0.00553942, Final residual = 0.000289932, No Iterations 2
smoothSolver:  Solving for k, Initial residual = 0.0198055, Final residual = 0.00133625, No Iterations 3
ExecutionTime = 1.53 s  ClockTime = 2 s

Time = 106

smoothSolver:  Solving for Ux, Initial residual = 0.0184066, Final residual = 0.00161301, No Iterations 5
smoothSolver:  Solving for Uy, Initial residual = 0.0641972, Final residual = 0.00583957, No Iterations 5
GAMG:  Solving for p, Initial residual = 0.100435, Final residual = 0.00954877, No Iterations 4
time step continuity errors : sum local = 0.781932, global = 0.145835, cumulative = -0.938694
smoothSolver:  Solving for omega, Initial residual = 0.00552919, Final residual = 0.000289085, No Iterations 2
smoothSolver:  Solving for k, Initial residual = 0.0199551, Final residual = 0.00134855, No Iterations 3
ExecutionTime = 1.54 s  ClockTime = 2 s

Time = 107

smoothSolver:  Solving for Ux, Initial residual = 0.0182108, Final residual = 0.00159278, No Iterations 5
smoothSolver:  Solving for Uy, Initial residual = 0.0640575, Final residual = 0.005878, No Iterations 5
GAMG:  Solving for p, Initial residual = 0.100267, Final residual = 0.00924705, No Iterations 4
time step continuity errors : sum local = 0.738246, global = 0.140528, cumulative = -0.798166
smoothSolver:  Solving for omega, Initial residual = 0.00554125, Final residual = 0.000288493, No Iterations 2
smoothSolver:  Solving for k, Initial residual = 0.0201374, Final residual = 0.0013686, No Iterations 3
ExecutionTime = 1.55 s  ClockTime = 2 s

Time = 108

smoothSolver:  Solving for Ux, Initial residual = 0.0179878, Final residual = 0.00156844, No Iterations 5
smoothSolver:  Solving for Uy, Initial residual = 0.0640244, Final residual = 0.0059352, No Iterations 5
GAMG:  Solving for p, Initial residual = 0.0986461, Final residual = 0.008787, No Iterations 4
time step continuity errors : sum local = 0.68941, global = 0.125066, cumulative = -0.6731
smoothSolver:  Solving for omega, Initial residual = 0.0055905, Final residual = 0.00028784, No Iterations 2
smoothSolver:  Solving for k, Initial residual = 0.0202604, Final residual = 0.0013743, No Iterations 3
ExecutionTime = 1.57 s  ClockTime = 2 s

Time = 109

smoothSolver:  Solving for Ux, Initial residual = 0.0177654, Final residual = 0.00154515, No Iterations 5
smoothSolver:  Solving for Uy, Initial residual = 0.0641908, Final residual = 0.0060165, No Iterations 5
GAMG:  Solving for p, Initial residual = 0.0975746, Final residual = 0.00849341, No Iterations 4
time step continuity errors : sum local = 0.658044, global = 0.109766, cumulative = -0.563334
smoothSolver:  Solving for omega, Initial residual = 0.00558851, Final residual = 0.000285033, No Iterations 2
smoothSolver:  Solving for k, Initial residual = 0.020433, Final residual = 0.00138038, No Iterations 3
ExecutionTime = 1.58 s  ClockTime = 2 s

Time = 110

smoothSolver:  Solving for Ux, Initial residual = 0.0175551, Final residual = 0.00152323, No Iterations 5
smoothSolver:  Solving for Uy, Initial residual = 0.0645257, Final residual = 0.00610294, No Iterations 5
GAMG:  Solving for p, Initial residual = 0.0954777, Final residual = 0.00827938, No Iterations 4
time step continuity errors : sum local = 0.638333, global = 0.0941924, cumulative = -0.469142
smoothSolver:  Solving for omega, Initial residual = 0.00565325, Final residual = 0.000282688, No Iterations 2
smoothSolver:  Solving for k, Initial residual = 0.0205988, Final residual = 0.00138619, No Iterations 3
ExecutionTime = 1.59 s  ClockTime = 2 s

Time = 111

smoothSolver:  Solving for Ux, Initial residual = 0.0173733, Final residual = 0.00150477, No Iterations 5
smoothSolver:  Solving for Uy, Initial residual = 0.0649822, Final residual = 0.00619154, No Iterations 5
GAMG:  Solving for p, Initial residual = 0.0932648, Final residual = 0.00818294, No Iterations 4
time step continuity errors : sum local = 0.633238, global = 0.0815383, cumulative = -0.387603
smoothSolver:  Solving for omega, Initial residual = 0.00563325, Final residual = 0.000285495, No Iterations 2
smoothSolver:  Solving for k, Initial residual = 0.0207654, Final residual = 0.00138696, No Iterations 3
ExecutionTime = 1.6 s  ClockTime = 2 s

Time = 112

smoothSolver:  Solving for Ux, Initial residual = 0.0172169, Final residual = 0.00149, No Iterations 5
smoothSolver:  Solving for Uy, Initial residual = 0.0655783, Final residual = 0.00627734, No Iterations 5
GAMG:  Solving for p, Initial residual = 0.090909, Final residual = 0.00807126, No Iterations 4
time step continuity errors : sum local = 0.631445, global = 0.0748557, cumulative = -0.312748
smoothSolver:  Solving for omega, Initial residual = 0.0055553, Final residual = 0.000277422, No Iterations 2
smoothSolver:  Solving for k, Initial residual = 0.020926, Final residual = 0.00138713, No Iterations 3
ExecutionTime = 1.61 s  ClockTime = 2 s

Time = 113

smoothSolver:  Solving for Ux, Initial residual = 0.0171024, Final residual = 0.00147931, No Iterations 5
smoothSolver:  Solving for Uy, Initial residual = 0.066161, Final residual = 0.0063638, No Iterations 5
GAMG:  Solving for p, Initial residual = 0.0884983, Final residual = 0.00781688, No Iterations 4
time step continuity errors : sum local = 0.619171, global = 0.0764287, cumulative = -0.236319
smoothSolver:  Solving for omega, Initial residual = 0.00555496, Final residual = 0.000277032, No Iterations 2
smoothSolver:  Solving for k, Initial residual = 0.0211317, Final residual = 0.00138985, No Iterations 3
ExecutionTime = 1.62 s  ClockTime = 2 s

Time = 114

smoothSolver:  Solving for Ux, Initial residual = 0.017035, Final residual = 0.00147248, No Iterations 5
smoothSolver:  Solving for Uy, Initial residual = 0.0667767, Final residual = 0.0064493, No Iterations 5
GAMG:  Solving for p, Initial residual = 0.086984, Final residual = 0.00747355, No Iterations 4
time step continuity errors : sum local = 0.599971, global = 0.081924, cumulative = -0.154395
smoothSolver:  Solving for omega, Initial residual = 0.00559391, Final residual = 0.000275422, No Iterations 2
smoothSolver:  Solving for k, Initial residual = 0.0213235, Final residual = 0.00138811, No Iterations 3
ExecutionTime = 1.64 s  ClockTime = 2 s

Time = 115

smoothSolver:  Solving for Ux, Initial residual = 0.0170123, Final residual = 0.00146916, No Iterations 5
smoothSolver:  Solving for Uy, Initial residual = 0.0674106, Final residual = 0.0065275, No Iterations 5
GAMG:  Solving for p, Initial residual = 0.0864121, Final residual = 0.00710399, No Iterations 4
time step continuity errors : sum local = 0.574553, global = 0.0843995, cumulative = -0.0699953
smoothSolver:  Solving for omega, Initial residual = 0.00568029, Final residual = 0.0002816, No Iterations 2
smoothSolver:  Solving for k, Initial residual = 0.0215431, Final residual = 0.00138648, No Iterations 3
ExecutionTime = 1.65 s  ClockTime = 2 s

Time = 116

smoothSolver:  Solving for Ux, Initial residual = 0.0170442, Final residual = 0.00147054, No Iterations 5
smoothSolver:  Solving for Uy, Initial residual = 0.067997, Final residual = 0.00659109, No Iterations 5
GAMG:  Solving for p, Initial residual = 0.0858498, Final residual = 0.00674035, No Iterations 4
[...]
smoothSolver:  Solving for Uy, Initial residual = 0.00201333, Final residual = 0.000194863, No Iterations 5
GAMG:  Solving for p, Initial residual = 0.00226788, Final residual = 0.000198792, No Iterations 5
time step continuity errors : sum local = 0.00797649, global = -0.000746195, cumulative = -2.08126
smoothSolver:  Solving for omega, Initial residual = 0.00030008, Final residual = 7.47291e-06, No Iterations 2
smoothSolver:  Solving for k, Initial residual = 0.000338323, Final residual = 2.02289e-05, No Iterations 3
ExecutionTime = 4.83 s  ClockTime = 5 s

Time = 359

smoothSolver:  Solving for Ux, Initial residual = 0.000261828, Final residual = 2.39066e-05, No Iterations 5
smoothSolver:  Solving for Uy, Initial residual = 0.00194254, Final residual = 0.000189708, No Iterations 5
GAMG:  Solving for p, Initial residual = 0.002137, Final residual = 0.000204363, No Iterations 5
time step continuity errors : sum local = 0.00819115, global = -0.000735138, cumulative = -2.082
smoothSolver:  Solving for omega, Initial residual = 0.000402123, Final residual = 3.52479e-05, No Iterations 1
smoothSolver:  Solving for k, Initial residual = 0.000328494, Final residual = 1.96577e-05, No Iterations 3
ExecutionTime = 4.85 s  ClockTime = 5 s

Time = 360

smoothSolver:  Solving for Ux, Initial residual = 0.000251744, Final residual = 2.28634e-05, No Iterations 5
smoothSolver:  Solving for Uy, Initial residual = 0.0018808, Final residual = 0.000186028, No Iterations 5
GAMG:  Solving for p, Initial residual = 0.00212304, Final residual = 0.000204386, No Iterations 5
time step continuity errors : sum local = 0.00818135, global = -0.000708262, cumulative = -2.08271
smoothSolver:  Solving for omega, Initial residual = 0.000381012, Final residual = 1.09269e-05, No Iterations 2
smoothSolver:  Solving for k, Initial residual = 0.000320341, Final residual = 1.91009e-05, No Iterations 3
ExecutionTime = 4.86 s  ClockTime = 5 s

Time = 361

smoothSolver:  Solving for Ux, Initial residual = 0.000244534, Final residual = 2.18738e-05, No Iterations 5
smoothSolver:  Solving for Uy, Initial residual = 0.00183491, Final residual = 0.00018254, No Iterations 5
GAMG:  Solving for p, Initial residual = 0.00209589, Final residual = 0.000204634, No Iterations 5
time step continuity errors : sum local = 0.00817894, global = -0.000679766, cumulative = -2.08339
smoothSolver:  Solving for omega, Initial residual = 0.000471674, Final residual = 4.21235e-05, No Iterations 1
smoothSolver:  Solving for k, Initial residual = 0.000311784, Final residual = 1.86682e-05, No Iterations 3
ExecutionTime = 4.87 s  ClockTime = 5 s

Time = 362

smoothSolver:  Solving for Ux, Initial residual = 0.000234504, Final residual = 2.09156e-05, No Iterations 5
smoothSolver:  Solving for Uy, Initial residual = 0.00178984, Final residual = 0.000117074, No Iterations 6
GAMG:  Solving for p, Initial residual = 0.00205491, Final residual = 0.000203562, No Iterations 5
time step continuity errors : sum local = 0.00812302, global = -0.000634337, cumulative = -2.08402
smoothSolver:  Solving for omega, Initial residual = 0.00054922, Final residual = 7.81042e-06, No Iterations 2
bounding omega, min: -835.063 max: 112523 average: 2430.42
smoothSolver:  Solving for k, Initial residual = 0.000310631, Final residual = 1.82562e-05, No Iterations 3
ExecutionTime = 4.89 s  ClockTime = 5 s

Time = 363

smoothSolver:  Solving for Ux, Initial residual = 0.000227428, Final residual = 2.011e-05, No Iterations 5
smoothSolver:  Solving for Uy, Initial residual = 0.00174238, Final residual = 0.000173511, No Iterations 5
GAMG:  Solving for p, Initial residual = 0.00253588, Final residual = 0.000201683, No Iterations 5
time step continuity errors : sum local = 0.00804208, global = -0.000622148, cumulative = -2.08464
smoothSolver:  Solving for omega, Initial residual = 0.0010749, Final residual = 4.59593e-05, No Iterations 1
smoothSolver:  Solving for k, Initial residual = 0.000302262, Final residual = 1.79742e-05, No Iterations 3
ExecutionTime = 4.9 s  ClockTime = 5 s

Time = 364

smoothSolver:  Solving for Ux, Initial residual = 0.000215435, Final residual = 1.92281e-05, No Iterations 5
smoothSolver:  Solving for Uy, Initial residual = 0.00171736, Final residual = 0.000111591, No Iterations 6
GAMG:  Solving for p, Initial residual = 0.0021048, Final residual = 0.000201199, No Iterations 5
time step continuity errors : sum local = 0.0080118, global = -0.000559584, cumulative = -2.0852
smoothSolver:  Solving for omega, Initial residual = 0.000267989, Final residual = 7.51807e-06, No Iterations 2
bounding omega, min: -44.6192 max: 112534 average: 2418.58
smoothSolver:  Solving for k, Initial residual = 0.000296067, Final residual = 1.76092e-05, No Iterations 3
ExecutionTime = 4.91 s  ClockTime = 5 s

Time = 365

smoothSolver:  Solving for Ux, Initial residual = 0.000205555, Final residual = 1.85219e-05, No Iterations 5
smoothSolver:  Solving for Uy, Initial residual = 0.00165449, Final residual = 0.000107127, No Iterations 6
GAMG:  Solving for p, Initial residual = 0.00215347, Final residual = 0.000195843, No Iterations 5
time step continuity errors : sum local = 0.00778238, global = -0.000511164, cumulative = -2.08571
smoothSolver:  Solving for omega, Initial residual = 0.000236809, Final residual = 7.40223e-06, No Iterations 2
smoothSolver:  Solving for k, Initial residual = 0.000289947, Final residual = 1.72352e-05, No Iterations 3
ExecutionTime = 4.93 s  ClockTime = 5 s

Time = 366

smoothSolver:  Solving for Ux, Initial residual = 0.000198479, Final residual = 1.78543e-05, No Iterations 5
smoothSolver:  Solving for Uy, Initial residual = 0.00160352, Final residual = 0.000160176, No Iterations 5
GAMG:  Solving for p, Initial residual = 0.00201507, Final residual = 0.000195297, No Iterations 5
time step continuity errors : sum local = 0.00774032, global = -0.000490446, cumulative = -2.0862
smoothSolver:  Solving for omega, Initial residual = 0.000291302, Final residual = 6.15723e-06, No Iterations 2
bounding omega, min: -176.636 max: 112548 average: 2418.87
smoothSolver:  Solving for k, Initial residual = 0.000286134, Final residual = 1.68171e-05, No Iterations 3
ExecutionTime = 4.94 s  ClockTime = 5 s

Time = 367

smoothSolver:  Solving for Ux, Initial residual = 0.000190984, Final residual = 1.7171e-05, No Iterations 5
smoothSolver:  Solving for Uy, Initial residual = 0.0016078, Final residual = 0.000158082, No Iterations 5
GAMG:  Solving for p, Initial residual = 0.00189367, Final residual = 0.000189136, No Iterations 5
time step continuity errors : sum local = 0.00748325, global = -0.000469848, cumulative = -2.08667
smoothSolver:  Solving for omega, Initial residual = 0.000253878, Final residual = 5.07105e-06, No Iterations 2
smoothSolver:  Solving for k, Initial residual = 0.000279127, Final residual = 1.64619e-05, No Iterations 3
ExecutionTime = 4.95 s  ClockTime = 5 s

Time = 368

smoothSolver:  Solving for Ux, Initial residual = 0.000182975, Final residual = 1.662e-05, No Iterations 5
smoothSolver:  Solving for Uy, Initial residual = 0.00157468, Final residual = 0.000154725, No Iterations 5
GAMG:  Solving for p, Initial residual = 0.00176671, Final residual = 0.000153128, No Iterations 6
time step continuity errors : sum local = 0.00604856, global = 0.000495879, cumulative = -2.08618
smoothSolver:  Solving for omega, Initial residual = 0.000174823, Final residual = 5.17183e-06, No Iterations 2
bounding omega, min: -240.464 max: 112564 average: 2418.42
smoothSolver:  Solving for k, Initial residual = 0.00027507, Final residual = 1.60893e-05, No Iterations 3
ExecutionTime = 4.97 s  ClockTime = 5 s

Time = 369

smoothSolver:  Solving for Ux, Initial residual = 0.00017599, Final residual = 1.616e-05, No Iterations 5
smoothSolver:  Solving for Uy, Initial residual = 0.00154279, Final residual = 0.00015021, No Iterations 5
GAMG:  Solving for p, Initial residual = 0.00167496, Final residual = 0.000162879, No Iterations 5
time step continuity errors : sum local = 0.00642355, global = -0.000340994, cumulative = -2.08652
smoothSolver:  Solving for omega, Initial residual = 0.000203192, Final residual = 5.01529e-06, No Iterations 2
smoothSolver:  Solving for k, Initial residual = 0.000269526, Final residual = 1.57833e-05, No Iterations 3
ExecutionTime = 4.98 s  ClockTime = 5 s

Time = 370

smoothSolver:  Solving for Ux, Initial residual = 0.000172512, Final residual = 1.58538e-05, No Iterations 5
smoothSolver:  Solving for Uy, Initial residual = 0.00150265, Final residual = 0.000144704, No Iterations 5
GAMG:  Solving for p, Initial residual = 0.0017012, Final residual = 0.000165105, No Iterations 5
time step continuity errors : sum local = 0.00650516, global = -0.00032542, cumulative = -2.08684
smoothSolver:  Solving for omega, Initial residual = 0.000193635, Final residual = 5.59837e-06, No Iterations 2
bounding omega, min: -149.073 max: 112579 average: 2418.45
smoothSolver:  Solving for k, Initial residual = 0.000265378, Final residual = 1.54823e-05, No Iterations 3
ExecutionTime = 4.99 s  ClockTime = 5 s

Time = 371

smoothSolver:  Solving for Ux, Initial residual = 0.000169817, Final residual = 1.55505e-05, No Iterations 5
smoothSolver:  Solving for Uy, Initial residual = 0.00146136, Final residual = 0.000139075, No Iterations 5
GAMG:  Solving for p, Initial residual = 0.00161789, Final residual = 0.00015896, No Iterations 5
time step continuity errors : sum local = 0.00625725, global = -0.000301073, cumulative = -2.08714
smoothSolver:  Solving for omega, Initial residual = 0.00024748, Final residual = 5.90461e-06, No Iterations 2
smoothSolver:  Solving for k, Initial residual = 0.000259828, Final residual = 1.52e-05, No Iterations 3
ExecutionTime = 5 s  ClockTime = 5 s

Time = 372

smoothSolver:  Solving for Ux, Initial residual = 0.000167458, Final residual = 1.53489e-05, No Iterations 5
smoothSolver:  Solving for Uy, Initial residual = 0.00143593, Final residual = 0.00013393, No Iterations 5
GAMG:  Solving for p, Initial residual = 0.0017722, Final residual = 0.00015358, No Iterations 5
time step continuity errors : sum local = 0.00603863, global = -0.000275408, cumulative = -2.08742
smoothSolver:  Solving for omega, Initial residual = 0.000241772, Final residual = 7.19818e-06, No Iterations 2
bounding omega, min: -150.227 max: 112594 average: 2418.75
smoothSolver:  Solving for k, Initial residual = 0.000254554, Final residual = 1.49049e-05, No Iterations 3
ExecutionTime = 5.02 s  ClockTime = 5 s

Time = 373

smoothSolver:  Solving for Ux, Initial residual = 0.00016625, Final residual = 1.52157e-05, No Iterations 5
smoothSolver:  Solving for Uy, Initial residual = 0.0013946, Final residual = 0.000128864, No Iterations 5
GAMG:  Solving for p, Initial residual = 0.00164954, Final residual = 0.000143509, No Iterations 5
time step continuity errors : sum local = 0.00563855, global = -0.000255122, cumulative = -2.08767
smoothSolver:  Solving for omega, Initial residual = 0.000304258, Final residual = 7.29288e-06, No Iterations 2
smoothSolver:  Solving for k, Initial residual = 0.000248272, Final residual = 1.4618e-05, No Iterations 3
ExecutionTime = 5.03 s  ClockTime = 5 s

Time = 374

smoothSolver:  Solving for Ux, Initial residual = 0.000164223, Final residual = 1.51089e-05, No Iterations 5
smoothSolver:  Solving for Uy, Initial residual = 0.00135726, Final residual = 0.000124, No Iterations 5
GAMG:  Solving for p, Initial residual = 0.00179278, Final residual = 0.000139011, No Iterations 5
time step continuity errors : sum local = 0.00545716, global = -0.000245229, cumulative = -2.08792
smoothSolver:  Solving for omega, Initial residual = 0.000280074, Final residual = 2.75148e-05, No Iterations 1
bounding omega, min: -147.825 max: 112608 average: 2419.21
smoothSolver:  Solving for k, Initial residual = 0.000242947, Final residual = 1.44836e-05, No Iterations 3
ExecutionTime = 5.04 s  ClockTime = 5 s

Time = 375

smoothSolver:  Solving for Ux, Initial residual = 0.000161418, Final residual = 1.50057e-05, No Iterations 5
smoothSolver:  Solving for Uy, Initial residual = 0.00130684, Final residual = 0.000119491, No Iterations 5
GAMG:  Solving for p, Initial residual = 0.00163049, Final residual = 0.000131424, No Iterations 5
time step continuity errors : sum local = 0.00515847, global = -0.000272177, cumulative = -2.08819
smoothSolver:  Solving for omega, Initial residual = 0.000235116, Final residual = 5.95057e-06, No Iterations 2
smoothSolver:  Solving for k, Initial residual = 0.000237562, Final residual = 1.41857e-05, No Iterations 3
ExecutionTime = 5.05 s  ClockTime = 5 s

Time = 376

smoothSolver:  Solving for Ux, Initial residual = 0.000161798, Final residual = 1.4905e-05, No Iterations 5
smoothSolver:  Solving for Uy, Initial residual = 0.00127649, Final residual = 0.000115159, No Iterations 5
GAMG:  Solving for p, Initial residual = 0.00176056, Final residual = 0.000170296, No Iterations 4
time step continuity errors : sum local = 0.0066787, global = 0.000508337, cumulative = -2.08768
smoothSolver:  Solving for omega, Initial residual = 0.000260482, Final residual = 5.38694e-06, No Iterations 2
bounding omega, min: -270.568 max: 112619 average: 2419.62
smoothSolver:  Solving for k, Initial residual = 0.000230659, Final residual = 1.38751e-05, No Iterations 3
ExecutionTime = 5.07 s  ClockTime = 5 s

Time = 377

smoothSolver:  Solving for Ux, Initial residual = 0.000160357, Final residual = 1.47777e-05, No Iterations 5
smoothSolver:  Solving for Uy, Initial residual = 0.00123742, Final residual = 0.000111003, No Iterations 5
GAMG:  Solving for p, Initial residual = 0.00176638, Final residual = 0.000175806, No Iterations 4
time step continuity errors : sum local = 0.00689598, global = 0.000533135, cumulative = -2.08715
smoothSolver:  Solving for omega, Initial residual = 0.000266931, Final residual = 7.43492e-06, No Iterations 2
smoothSolver:  Solving for k, Initial residual = 0.000222651, Final residual = 1.35594e-05, No Iterations 3
ExecutionTime = 5.08 s  ClockTime = 5 s

Time = 378

smoothSolver:  Solving for Ux, Initial residual = 0.000162592, Final residual = 1.45797e-05, No Iterations 5
smoothSolver:  Solving for Uy, Initial residual = 0.0012128, Final residual = 0.000107453, No Iterations 5
GAMG:  Solving for p, Initial residual = 0.0018085, Final residual = 0.000171046, No Iterations 4
time step continuity errors : sum local = 0.00670456, global = 0.000510534, cumulative = -2.08664
smoothSolver:  Solving for omega, Initial residual = 0.000397922, Final residual = 6.07976e-06, No Iterations 2
bounding omega, min: -280.711 max: 112628 average: 2419.87
smoothSolver:  Solving for k, Initial residual = 0.000215919, Final residual = 1.32701e-05, No Iterations 3
ExecutionTime = 5.09 s  ClockTime = 5 s

Time = 379

smoothSolver:  Solving for Ux, Initial residual = 0.000159546, Final residual = 1.43144e-05, No Iterations 5
smoothSolver:  Solving for Uy, Initial residual = 0.00118321, Final residual = 0.000104349, No Iterations 5
GAMG:  Solving for p, Initial residual = 0.00182949, Final residual = 0.000163453, No Iterations 4
time step continuity errors : sum local = 0.0064107, global = 0.000497013, cumulative = -2.08614
smoothSolver:  Solving for omega, Initial residual = 0.000346617, Final residual = 9.53555e-06, No Iterations 2
smoothSolver:  Solving for k, Initial residual = 0.000211363, Final residual = 1.30177e-05, No Iterations 3
ExecutionTime = 5.1 s  ClockTime = 5 s

Time = 380

smoothSolver:  Solving for Ux, Initial residual = 0.000159076, Final residual = 1.40165e-05, No Iterations 5
smoothSolver:  Solving for Uy, Initial residual = 0.00114604, Final residual = 0.00010137, No Iterations 5
GAMG:  Solving for p, Initial residual = 0.00170507, Final residual = 0.000150543, No Iterations 4
time step continuity errors : sum local = 0.00590185, global = 0.000446986, cumulative = -2.0857
smoothSolver:  Solving for omega, Initial residual = 0.000495139, Final residual = 4.56515e-05, No Iterations 1
bounding omega, min: -381.62 max: 112634 average: 2421.96
smoothSolver:  Solving for k, Initial residual = 0.00020658, Final residual = 1.28407e-05, No Iterations 3
ExecutionTime = 5.11 s  ClockTime = 5 s

Time = 381

smoothSolver:  Solving for Ux, Initial residual = 0.000154346, Final residual = 1.36549e-05, No Iterations 5
smoothSolver:  Solving for Uy, Initial residual = 0.00111144, Final residual = 9.88714e-05, No Iterations 5
GAMG:  Solving for p, Initial residual = 0.00175647, Final residual = 0.000143056, No Iterations 4
time step continuity errors : sum local = 0.00561385, global = 0.000449114, cumulative = -2.08525
smoothSolver:  Solving for omega, Initial residual = 0.000470305, Final residual = 2.97799e-05, No Iterations 1
smoothSolver:  Solving for k, Initial residual = 0.000200948, Final residual = 1.26732e-05, No Iterations 3
ExecutionTime = 5.12 s  ClockTime = 5 s

Time = 382

smoothSolver:  Solving for Ux, Initial residual = 0.000149369, Final residual = 1.3265e-05, No Iterations 5
smoothSolver:  Solving for Uy, Initial residual = 0.00107965, Final residual = 9.63299e-05, No Iterations 5
GAMG:  Solving for p, Initial residual = 0.00154938, Final residual = 0.000154286, No Iterations 4
time step continuity errors : sum local = 0.0060527, global = 0.00012266, cumulative = -2.08512
smoothSolver:  Solving for omega, Initial residual = 0.000188168, Final residual = 6.00624e-06, No Iterations 2
bounding omega, min: -464.315 max: 112637 average: 2418.24
smoothSolver:  Solving for k, Initial residual = 0.000195546, Final residual = 1.24278e-05, No Iterations 3
ExecutionTime = 5.14 s  ClockTime = 5 s

Time = 383

smoothSolver:  Solving for Ux, Initial residual = 0.000142995, Final residual = 1.28264e-05, No Iterations 5
smoothSolver:  Solving for Uy, Initial residual = 0.00104792, Final residual = 9.43046e-05, No Iterations 5
GAMG:  Solving for p, Initial residual = 0.00151543, Final residual = 0.000124568, No Iterations 4
time step continuity errors : sum local = 0.00488958, global = -0.000289825, cumulative = -2.08541
smoothSolver:  Solving for omega, Initial residual = 0.000176447, Final residual = 4.85197e-06, No Iterations 2
smoothSolver:  Solving for k, Initial residual = 0.000189363, Final residual = 1.21382e-05, No Iterations 3
ExecutionTime = 5.15 s  ClockTime = 5 s

Time = 384

smoothSolver:  Solving for Ux, Initial residual = 0.000138329, Final residual = 1.2475e-05, No Iterations 5
smoothSolver:  Solving for Uy, Initial residual = 0.00100993, Final residual = 9.2004e-05, No Iterations 5
GAMG:  Solving for p, Initial residual = 0.00141107, Final residual = 0.000138155, No Iterations 4
time step continuity errors : sum local = 0.0054225, global = -0.000780852, cumulative = -2.0862
smoothSolver:  Solving for omega, Initial residual = 0.000155712, Final residual = 4.81974e-06, No Iterations 2
bounding omega, min: -100.666 max: 112637 average: 2417.95
smoothSolver:  Solving for k, Initial residual = 0.000183563, Final residual = 1.18529e-05, No Iterations 3
ExecutionTime = 5.16 s  ClockTime = 5 s

Time = 385

smoothSolver:  Solving for Ux, Initial residual = 0.000135214, Final residual = 1.20503e-05, No Iterations 5
smoothSolver:  Solving for Uy, Initial residual = 0.000986724, Final residual = 9.00705e-05, No Iterations 5
GAMG:  Solving for p, Initial residual = 0.00135647, Final residual = 0.000109519, No Iterations 5
time step continuity errors : sum local = 0.00430056, global = 0.000381409, cumulative = -2.08581
smoothSolver:  Solving for omega, Initial residual = 0.000215927, Final residual = 5.21928e-06, No Iterations 2
smoothSolver:  Solving for k, Initial residual = 0.000178108, Final residual = 1.16215e-05, No Iterations 3
ExecutionTime = 5.17 s  ClockTime = 5 s


SIMPLE solution converged in 385 iterations

streamLine streamlines write:
    seeded 10 particles
    Tracks:10
    Total samples:11980
End

